geometry optimzed in LAMMPS
_audit_creation_date              2020-12-01 
_audit_creation_method            'lammps2cif' 
_symmetry_space_group_name_H-M    'P1' 
_symmetry_Int_Tables_number       1 
_symmetry_cell_setting            triclinic 
loop_ 
_symmetry_equiv_pos_as_xyz 
  x,y,z 
_cell_length_a                    41.40903716 
_cell_length_b                    29.932009291667942 
_cell_length_c                    27.750010684618264 
_cell_angle_alpha                 90.01985473784731 
_cell_angle_beta                  90.05058538814691 
_cell_angle_gamma                 89.05384503648627 
loop_ 
_atom_site_label 
_atom_site_type_symbol 
_atom_site_fract_x 
_atom_site_fract_y 
_atom_site_fract_z 
_atom_site_charge 
C1          C  0.51568427  0.98834666  0.19173612     0.01900
C2          C  0.48186465  0.98705154  0.18764874     0.01900
C3          C  0.46317173  0.98030237  0.22890432    -0.18600
C4          C  0.47719586  0.97737064  0.27501407     0.01900
C5          C  0.51133889  0.97957492  0.27912467     0.01900
C6          C  0.53007600  0.98441341  0.23728104    -0.18600
H7          H  0.55614581  0.98610826  0.24029013     0.03900
H8          H  0.43733633  0.97647501  0.22472373     0.03900
C9          C  0.35196185  0.93311583  0.99387603     0.86100
C10         C  0.33793083  0.98424994  0.48957411    -0.54100
C11         C  0.36002761  0.01704288  0.48131055     0.09100
C12         C  0.39523003  0.99831778  0.48040399     0.20000
C13         C  0.37220166  0.92854434  0.45107160    -0.54800
C14         C  0.39465742  0.96066457  0.44239193     0.09200
C15         C  0.37791567  0.93824918  0.03268265    -0.54400
C16         C  0.39961782  0.97066273  0.02377367     0.09700
H17         H  0.31202691  0.99044840  0.48922575     0.14200
H18         H  0.41418746  0.02330770  0.47412204     0.00000
H19         H  0.36877575  0.90113502  0.42622587     0.14500
H20         H  0.37899236  0.91781036  0.06503950     0.14300
C21         C  0.64034507  0.04204712  0.47394899     0.86100
C22         C  0.61628779  0.03335136  0.43338451    -0.54100
C23         C  0.59800936  0.99646851  0.43942745     0.09100
C24         C  0.60764519  0.97040715  0.99009092     0.20000
C25         C  0.61984492  0.04428639  0.02121794    -0.54800
C26         C  0.60125902  0.00729135  0.02793834     0.09200
C27         C  0.66016440  0.99865707  0.47944829    -0.54400
C28         C  0.64461595  0.96180330  0.99185451     0.09700
H29         H  0.61337364  0.05546828  0.40256192     0.14200
H30         H  0.59308711  0.93996887  0.99499976     0.00000
H31         H  0.61947711  0.07275345  0.04542141     0.14500
H32         H  0.68634047  0.99822232  0.48248478     0.14300
C33         C  0.51726320  0.55513951  0.18959583     0.01900
C34         C  0.48311425  0.55665403  0.18598970     0.01900
C35         C  0.46473429  0.56579488  0.22736606    -0.18600
C36         C  0.47814344  0.56480996  0.27417907     0.01900
C37         C  0.51239165  0.56076085  0.27827744     0.01900
C38         C  0.53121026  0.55856343  0.23590260    -0.18600
H39         H  0.55728438  0.55695400  0.23937952     0.03900
H40         H  0.43882808  0.56977972  0.22307339     0.03900
C41         C  0.35951772  0.46812917  0.47774911     0.86100
C42         C  0.37836555  0.48124238  0.43271332    -0.54100
C43         C  0.39292601  0.52189236  0.43447632     0.09100
C44         C  0.38595349  0.54035192  0.98559196     0.20000
C45         C  0.38226525  0.46910824  0.02809987    -0.54800
C46         C  0.39720760  0.50991446  0.02787723     0.09200
C47         C  0.33639721  0.50825010  0.48662619    -0.54400
C48         C  0.34899350  0.54338198  0.99121947     0.09700
H49         H  0.38070912  0.45867248  0.40236829     0.14200
H50         H  0.39718224  0.57355056  0.98451873     0.00000
H51         H  0.38668786  0.44387492  0.05550605     0.14500
H52         H  0.31079378  0.50660766  0.49348416     0.14300
C53         C  0.64110652  0.48012393  0.47200509     0.86100
C54         C  0.66098498  0.52265061  0.48049571    -0.54100
C55         C  0.64643852  0.56130483  0.98886712     0.09100
C56         C  0.60957488  0.55474036  0.98601026     0.20000
C57         C  0.62015234  0.47986936  0.01733017    -0.54800
C58         C  0.60284595  0.51893697  0.02494780     0.09200
C59         C  0.61876540  0.49262298  0.42999078    -0.54400
C60         C  0.59994295  0.52973070  0.43737762     0.09700
H61         H  0.68693859  0.52380205  0.48351065     0.14200
H62         H  0.59590592  0.58662101  0.99007069     0.00000
H63         H  0.61763643  0.45019106  0.03924753     0.14500
H64         H  0.61705226  0.47266546  0.39740077     0.14300
C65         C  0.98130349  0.50594414  0.04621866     0.01900
C66         C  0.01552209  0.50141792  0.04776323     0.01900
C67         C  0.03444583  0.50772321  0.50653321    -0.18600
C68         C  0.01892919  0.51461364  0.46207302     0.01900
C69         C  0.98499759  0.52145403  0.46064515     0.01900
C70         C  0.96777228  0.51962216  0.50437515    -0.18600
H71         H  0.94168725  0.52330099  0.50373869     0.03900
H72         H  0.06052798  0.50387850  0.50690687     0.03900
C73         C  0.14745442  0.44735226  0.26009339     0.86100
C74         C  0.12870415  0.45962060  0.30572772    -0.54100
C75         C  0.10628607  0.49317385  0.30062908     0.09100
C76         C  0.10639200  0.51434084  0.24993000     0.20000
C77         C  0.12124895  0.43989588  0.22131921    -0.54800
C78         C  0.09969346  0.47513608  0.21525092     0.09200
C79         C  0.16302194  0.49145535  0.24501646    -0.54400
C80         C  0.14175746  0.52642607  0.24021631     0.09700
H81         H  0.13198969  0.44142341  0.33930231     0.14200
H82         H  0.09019313  0.54374063  0.24588551     0.00000
H83         H  0.12040342  0.40933234  0.20039921     0.14500
H84         H  0.18831231  0.49569948  0.23703372     0.14300
C85         C  0.85643049  0.46820259  0.26745104     0.86100
C86         C  0.83819137  0.51143999  0.25205574    -0.54100
C87         C  0.85778360  0.54637156  0.24184397     0.09100
C88         C  0.89401272  0.53573152  0.24869064     0.20000
C89         C  0.88015927  0.45995099  0.22544225    -0.54800
C90         C  0.89996054  0.49500036  0.21573659     0.09200
C91         C  0.87715327  0.48320190  0.31003927    -0.54400
C92         C  0.89736681  0.51736896  0.30027899     0.09700
H93         H  0.81250657  0.51486635  0.24592278     0.14200
H94         H  0.90999232  0.56432717  0.24115308     0.00000
H95         H  0.87941112  0.43043210  0.20279724     0.14500
H96         H  0.87715334  0.46651451  0.34480910     0.14300
C97         C  0.01840086  0.98378630  0.06089317     0.01900
C98         C  0.98431614  0.98065628  0.05898214     0.01900
C99         C  0.97143953  0.97576466  0.51563698    -0.18600
C100        C  0.98957908  0.97519336  0.47267648     0.01900
C101        C  0.02352096  0.97959698  0.47541427     0.01900
C102        C  0.03821880  0.98230393  0.52078136    -0.18600
H103        H  0.06434088  0.98370771  0.52299278     0.03900
H104        H  0.94546473  0.97244859  0.51329900     0.03900
C105        C  0.15005205  0.03910618  0.26552792     0.86100
C106        C  0.16579619  0.99396269  0.25107156    -0.54100
C107        C  0.14471184  0.95937360  0.24859764     0.09100
C108        C  0.10963429  0.97268932  0.26164702     0.20000
C109        C  0.12268438  0.04524983  0.22801378    -0.54800
C110        C  0.10165341  0.01036686  0.22576618     0.09200
C111        C  0.13338254  0.02849206  0.31321757    -0.54400
C112        C  0.11086260  0.99572131  0.31154065     0.09700
H113        H  0.19054933  0.98925094  0.23951813     0.14200
H114        H  0.09255807  0.94475935  0.25909868     0.00000
H115        H  0.12211656  0.07243658  0.20217396     0.14500
H116        H  0.13873323  0.04699208  0.34583608     0.14300
C117        C  0.86027391  0.04005913  0.27865142     0.86100
C118        C  0.88018151  0.02504169  0.32251840    -0.54100
C119        C  0.89958387  0.98840060  0.31509141     0.09100
C120        C  0.89536325  0.96742940  0.26466269     0.20000
C121        C  0.88462851  0.04336374  0.23698399    -0.54800
C122        C  0.90290807  0.00541205  0.22908898     0.09200
C123        C  0.84056827  0.99823697  0.26629189    -0.54400
C124        C  0.85878765  0.96049262  0.25878554     0.09700
H125        H  0.88078490  0.04387031  0.35596065     0.14200
H126        H  0.90945418  0.93615536  0.25882019     0.00000
H127        H  0.88665933  0.07328640  0.21517392     0.14500
H128        H  0.81465506  0.99765515  0.26173277     0.14300
O129        O  0.73766826  0.30345734  0.43616581    -0.74800
O130        O  0.79038588  0.21167483  0.37851618    -0.74800
O131        O  0.78949421  0.30210767  0.37728882    -0.74900
O132        O  0.73827635  0.21229486  0.43749976    -0.74900
O133        O  0.70658296  0.21081146  0.37241347    -0.74900
O134        O  0.75603521  0.30278440  0.31423630    -0.74800
O135        O  0.75828591  0.21175432  0.31397486    -0.74800
O136        O  0.70419082  0.30178796  0.37318845    -0.74900
Ni137      Ni  0.76505912  0.25737480  0.40972829     1.25400
Ni138      Ni  0.73008360  0.25678901  0.34120839     1.25400
C139        C  0.71273851  0.31852777  0.41368348     0.87400
C140        C  0.78295827  0.19633672  0.33691058     0.87300
C141        C  0.78076221  0.31779987  0.33626927     0.87400
C142        C  0.71460320  0.19590481  0.41400429     0.87500
O143        O  0.76687622  0.71311646  0.18101823    -0.74800
O144        O  0.71312112  0.80426008  0.12374071    -0.74800
O145        O  0.71417384  0.71422832  0.12161192    -0.74900
O146        O  0.76543589  0.80326133  0.18324518    -0.74900
O147        O  0.79829734  0.80436283  0.11994126    -0.74900
O148        O  0.74593989  0.71642687  0.05711394    -0.74800
O149        O  0.74577097  0.80658180  0.06035285    -0.74800
O150        O  0.79854884  0.71358322  0.11605280    -0.74900
Ni151      Ni  0.73880013  0.75865568  0.15466536     1.25400
Ni152      Ni  0.77336023  0.76031788  0.08614856     1.25400
C153        C  0.79153426  0.69826946  0.15778977     0.87400
C154        C  0.72021808  0.82019459  0.08230933     0.87300
C155        C  0.72095550  0.70134954  0.07868784     0.87400
C156        C  0.79054255  0.81834489  0.16218760     0.87500
O157        O  0.25906619  0.19752053  0.31025074    -0.74800
O158        O  0.30734571  0.28846116  0.37562931    -0.74800
O159        O  0.30851535  0.19739860  0.37523926    -0.74900
O160        O  0.25785867  0.28865083  0.31094982    -0.74900
O161        O  0.22200726  0.28716498  0.37081109    -0.74900
O162        O  0.27308457  0.19755760  0.43542315    -0.74800
O163        O  0.27127208  0.28848896  0.43518369    -0.74800
O164        O  0.22374483  0.19736773  0.37079584    -0.74900
Ni165      Ni  0.28452608  0.24298393  0.34087977     1.25400
Ni166      Ni  0.24640832  0.24258609  0.40525289     1.25400
C167        C  0.23319364  0.18286083  0.32963620     0.87400
C168        C  0.29669313  0.30427725  0.41563499     0.87300
C169        C  0.29898422  0.18205426  0.41592093     0.87400
C170        C  0.23137636  0.30258427  0.33021137     0.87500
O171        O  0.27483562  0.69783270  0.11506675    -0.74800
O172        O  0.22240915  0.78776936  0.17514396    -0.74800
O173        O  0.22392726  0.69779859  0.17600505    -0.74900
O174        O  0.27277161  0.78800497  0.11329192    -0.74900
O175        O  0.23970997  0.78556142  0.04981542    -0.74900
O176        O  0.18975415  0.69687924  0.11412363    -0.74800
O177        O  0.18892017  0.78809967  0.11220037    -0.74800
O178        O  0.24123841  0.69528943  0.05240382    -0.74900
Ni179      Ni  0.24964126  0.74288639  0.14699327     1.25400
Ni180      Ni  0.21357891  0.74137996  0.07990219     1.25400
C181        C  0.26697766  0.68161381  0.07411249     0.87400
C182        C  0.19720883  0.80302230  0.15378888     0.87300
C183        C  0.19865667  0.68239476  0.15560135     0.87400
C184        C  0.26451346  0.80118806  0.07105574     0.87500
C185        C  0.80330045  0.86286326  0.23599805    -0.26700
C186        C  0.81045606  0.85233744  0.18760932    -0.14700
C187        C  0.83601443  0.87501860  0.16484704     0.35900
C188        C  0.85278380  0.90828039  0.18994908    -0.26100
C189        C  0.84439612  0.91999861  0.23727938    -0.15400
C190        C  0.81980285  0.89628128  0.26078353     0.37000
N191        N  0.81137144  0.90496567  0.31001748    -0.89600
H192        H  0.78436480  0.84544080  0.25480855     0.18100
H193        H  0.87152684  0.92646272  0.17150706     0.18100
N194        N  0.84455871  0.86549438  0.11587849    -0.92600
H195        H  0.80279218  0.93781586  0.31320954     0.35400
H196        H  0.83220346  0.90133306  0.33103096     0.40500
H197        H  0.86890572  0.85569747  0.11507224     0.40200
H198        H  0.84200273  0.89500876  0.09598067     0.35100
C199        C  0.83621265  0.15803135  0.32527457    -0.26700
C200        C  0.80296174  0.15960845  0.31604808    -0.14700
C201        C  0.78926491  0.12516621  0.28878312     0.35900
C202        C  0.80835148  0.08824325  0.27470416    -0.26100
C203        C  0.84135035  0.08424873  0.28739615    -0.15400
C204        C  0.85577598  0.12209959  0.30978726     0.37000
N205        N  0.88998924  0.12609106  0.31731200    -0.89600
H206        H  0.84731288  0.18544546  0.34431503     0.18100
H207        H  0.79663280  0.06307438  0.25353467     0.18100
N208        N  0.75560213  0.12653282  0.27680208    -0.88600
H209        H  0.90352254  0.10145746  0.29974696     0.35400
H210        H  0.89453947  0.12361928  0.35428275     0.40500
H211        H  0.74492135  0.09810132  0.29123415     0.40200
H212        H  0.75349144  0.12499901  0.23928460     0.35100
C213        C  0.15689882  0.87723968  0.24854072    -0.26700
C214        C  0.15371339  0.91741163  0.22302292    -0.14700
C215        C  0.16146457  0.91823961  0.17353200     0.35900
C216        C  0.17344229  0.87950203  0.15077550    -0.26100
C217        C  0.17880293  0.84004572  0.17694249    -0.15400
C218        C  0.16979714  0.83877267  0.22624496     0.37000
N219        N  0.17344381  0.79893762  0.25447761    -0.89600
H220        H  0.15070446  0.87628646  0.28646139     0.18100
H221        H  0.18028734  0.88103593  0.11312404     0.18100
N222        N  0.15784538  0.95880143  0.14652613    -0.88600
H223        H  0.19794355  0.79034929  0.25676316     0.35400
H224        H  0.16134230  0.77315709  0.23702968     0.40500
H225        H  0.14232388  0.95278316  0.11759121     0.40200
H226        H  0.18042005  0.96693343  0.13249937     0.35100
C227        C  0.20591241  0.07655584  0.26700376    -0.26700
C228        C  0.17191491  0.08016503  0.27165767    -0.14700
C229        C  0.15894897  0.12191729  0.28834882     0.35900
C230        C  0.17956543  0.15485199  0.30568005    -0.26100
C231        C  0.21318092  0.14922876  0.30470007    -0.15400
C232        C  0.22640430  0.11054004  0.28278490     0.37000
N233        N  0.26058896  0.10367461  0.27830253    -0.89600
H234        H  0.21744725  0.04688870  0.25282785     0.18100
H235        H  0.16906974  0.18529048  0.32054493     0.18100
N236        N  0.12499688  0.13232606  0.28880739    -0.88600
H237        H  0.27100671  0.10560893  0.31254300     0.35400
H238        H  0.26980224  0.12914119  0.25679900     0.40500
H239        H  0.11256444  0.10965072  0.31000872     0.40200
H240        H  0.11611632  0.13172130  0.25362698     0.35100
C241        C  0.03723545  0.03105793  0.12911737    -0.26700
C242        C  0.03689231  0.98919928  0.10621563    -0.14700
C243        C  0.05654433  0.95393640  0.12440251     0.35900
C244        C  0.07673515  0.96190008  0.16368641    -0.26100
C245        C  0.07806247  0.00403719  0.18582000    -0.15400
C246        C  0.05758920  0.03868387  0.16885650     0.37000
N247        N  0.05711427  0.08136634  0.19214956    -0.89600
H248        H  0.02211803  0.05812233  0.11547425     0.18100
H249        H  0.09209550  0.93470488  0.17613596     0.18100
N250        N  0.05687643  0.90972905  0.10389431    -0.88600
H251        H  0.03355375  0.08796403  0.20401043     0.35400
H252        H  0.06293454  0.10552993  0.16653569     0.40500
H253        H  0.04018035  0.90670826  0.07597437     0.40200
H254        H  0.04946213  0.88765718  0.13074158     0.35100
C255        C  0.07985870  0.02727267  0.38163127    -0.26700
C256        C  0.08713814  0.98998522  0.35219121    -0.14700
C257        C  0.07203116  0.94912646  0.36305191     0.35900
C258        C  0.05013138  0.94676779  0.40196197    -0.26100
C259        C  0.04443948  0.98373857  0.43216357    -0.15400
C260        C  0.06047982  0.02400396  0.42242808     0.37000
N261        N  0.05831478  0.06207041  0.45383571    -0.89600
H262        H  0.08989700  0.05962020  0.37401676     0.18100
H263        H  0.03860840  0.91537140  0.40988913     0.18100
N264        N  0.07970220  0.90948990  0.33632855    -0.88600
H265        H  0.06922579  0.05400403  0.48668151     0.35400
H266        H  0.03416710  0.07040313  0.46031591     0.40500
H267        H  0.05827221  0.89735231  0.32173823     0.40200
H268        H  0.08890584  0.88553657  0.36031256     0.35100
C269        C  0.95286784  0.93755042  0.41370017    -0.26700
C270        C  0.97159611  0.97471409  0.42607828    -0.14700
C271        C  0.96886593  0.01366003  0.39784446     0.35900
C272        C  0.94742095  0.01529094  0.35890624    -0.26100
C273        C  0.92712123  0.97949538  0.34845827    -0.15400
C274        C  0.93061205  0.93964526  0.37530689     0.37000
N275        N  0.91064970  0.90197451  0.36625416    -0.89600
H276        H  0.95437458  0.90758756  0.43554522     0.18100
H277        H  0.94500960  0.04612583  0.33863814     0.18100
N278        N  0.98592927  0.05301767  0.41069272    -0.88600
H279        H  0.91448418  0.89150268  0.33076513     0.35400
H280        H  0.88651487  0.91220024  0.36973083     0.40500
H281        H  0.96901262  0.07851311  0.41767736     0.40200
H282        H  0.99970263  0.06260421  0.38098397     0.35100
C283        C  0.91643362  0.02041020  0.14277179    -0.26700
C284        C  0.92487897  0.99987228  0.18664849    -0.14700
C285        C  0.95330393  0.97326120  0.18850494     0.35900
C286        C  0.97128524  0.96543738  0.14633658    -0.26100
C287        C  0.96341773  0.98701479  0.10272964    -0.15400
C288        C  0.93580777  0.01556058  0.10148446     0.37000
N289        N  0.92764663  0.04006935  0.05846918    -0.89600
H290        H  0.89453823  0.04054741  0.14043843     0.18100
H291        H  0.99176166  0.94262641  0.14815719     0.18100
N292        N  0.96484731  0.95543679  0.23332694    -0.88600
H293        H  0.90657547  0.05924786  0.06342482     0.35400
H294        H  0.94622181  0.06250973  0.05199864     0.40500
H295        H  0.98793710  0.96788563  0.23955785     0.40200
H296        H  0.96693729  0.92073155  0.22987663     0.35100
C297        C  0.83293166  0.35116141  0.31368927    -0.26700
C298        C  0.79924907  0.35433627  0.31460917    -0.14700
C299        C  0.78371614  0.39315534  0.29703917     0.35900
C300        C  0.80235276  0.42889838  0.28075453    -0.26100
C301        C  0.83650624  0.42684803  0.28055756    -0.15400
C302        C  0.85166531  0.38601595  0.29609063     0.37000
N303        N  0.88594081  0.37814481  0.29463587    -0.89600
H304        H  0.84490136  0.32094720  0.32654475     0.18100
H305        H  0.78933299  0.45828402  0.26922138     0.18100
N306        N  0.74904434  0.39721048  0.29821941    -0.88600
H307        H  0.89801905  0.40138058  0.31567001     0.35400
H308        H  0.89408470  0.37942438  0.25916346     0.40500
H309        H  0.73990899  0.37525510  0.27248706     0.40200
H310        H  0.74141931  0.42919067  0.28760375     0.35100
C311        C  0.83999642  0.62593703  0.24527597    -0.26700
C312        C  0.84478120  0.58705032  0.21779852    -0.14700
C313        C  0.83362886  0.58612056  0.16936767     0.35900
C314        C  0.81762370  0.62370645  0.15029413    -0.26100
C315        C  0.81146311  0.66167261  0.17846369    -0.15400
C316        C  0.82311407  0.66306563  0.22613281     0.37000
N317        N  0.81786429  0.70211907  0.25508635    -0.89600
H318        H  0.84827597  0.62683235  0.28232692     0.18100
H319        H  0.80862667  0.62244465  0.11361876     0.18100
N320        N  0.83696451  0.54743487  0.13886213    -0.88600
H321        H  0.84039175  0.71385077  0.26589531     0.35400
H322        H  0.80524422  0.69272433  0.28597630     0.40500
H323        H  0.84905411  0.52112749  0.15596504     0.40200
H324        H  0.85122247  0.55628213  0.10940574     0.35100
C325        C  0.13816589  0.59051546  0.18290911    -0.26700
C326        C  0.15254036  0.57078143  0.22357565    -0.14700
C327        C  0.17949785  0.59096246  0.24478488     0.35900
C328        C  0.19317202  0.62833998  0.22310460    -0.26100
C329        C  0.18049399  0.64639421  0.18015599    -0.15400
C330        C  0.15188300  0.62809628  0.16096231     0.37000
N331        N  0.13697769  0.64676510  0.11878549    -0.89600
H332        H  0.11718224  0.57540659  0.16664802     0.18100
H333        H  0.21453056  0.64229728  0.23943893     0.18100
N334        N  0.19333184  0.57314265  0.28819617    -0.88600
H335        H  0.11326738  0.65616032  0.12756872     0.35400
H336        H  0.13601909  0.62179065  0.09249903     0.40500
H337        H  0.19278954  0.59830746  0.31433193     0.40200
H338        H  0.21750199  0.56470652  0.28136345     0.35100
C339        C  0.20405797  0.40941858  0.26694612    -0.26700
C340        C  0.17001282  0.40673512  0.26973898    -0.14700
C341        C  0.15693972  0.36652111  0.28767799     0.35900
C342        C  0.17736743  0.33262324  0.30598705    -0.26100
C343        C  0.21101357  0.33695963  0.30581264    -0.15400
C344        C  0.22440502  0.37516249  0.28487771     0.37000
N345        N  0.25871592  0.38052338  0.28414822    -0.89600
H346        H  0.21572804  0.43840473  0.25272185     0.18100
H347        H  0.16675367  0.30293908  0.32123580     0.18100
N348        N  0.12267552  0.36071226  0.28933053    -0.88600
H349        H  0.26413099  0.40958573  0.30324844     0.35400
H350        H  0.26582476  0.38500984  0.24836176     0.40500
H351        H  0.11603095  0.35530713  0.32517936     0.40200
H352        H  0.11719559  0.33205845  0.26960118     0.35100
C353        C  0.02806348  0.51325022  0.13640834    -0.26700
C354        C  0.03445001  0.49069032  0.09288869    -0.14700
C355        C  0.06012805  0.45890244  0.09229496     0.35900
C356        C  0.08054905  0.45392064  0.13238405    -0.26100
C357        C  0.07491626  0.47756211  0.17541742    -0.15400
C358        C  0.04679840  0.50513723  0.17802076     0.37000
N359        N  0.03628932  0.52384338  0.22295255    -0.89600
H360        H  0.00848992  0.53755280  0.13848650     0.18100
H361        H  0.10131708  0.43178389  0.12890469     0.18100
N362        N  0.06564813  0.43118222  0.05097426    -0.88600
H363        H  0.01317092  0.51203001  0.23023523     0.35400
H364        H  0.03450349  0.55853443  0.21900445     0.40500
H365        H  0.06407425  0.39782408  0.06175243     0.40200
H366        H  0.08916895  0.43641502  0.03875804     0.35100
C367        C  0.04860759  0.54770605  0.39206305    -0.26700
C368        C  0.03894829  0.50988184  0.41801573    -0.14700
C369        C  0.04994886  0.46716117  0.40317858     0.35900
C370        C  0.06970760  0.46301439  0.36293685    -0.26100
C371        C  0.08123103  0.50067470  0.33850242    -0.15400
C372        C  0.07012808  0.54345408  0.35281317     0.37000
N373        N  0.08165104  0.58257053  0.32919811    -0.89600
H374        H  0.04045288  0.58062428  0.40346400     0.18100
H375        H  0.07705545  0.42968020  0.35176369     0.18100
N376        N  0.04185479  0.42724481  0.42872598    -0.88600
H377        H  0.09288601  0.60252535  0.35497873     0.35400
H378        H  0.06168181  0.60035960  0.31568917     0.40500
H379        H  0.01681112  0.42526536  0.43199350     0.40200
H380        H  0.05177703  0.42889777  0.46317408     0.35100
C381        C  0.97016078  0.49488535  0.37760353    -0.26700
C382        C  0.96638221  0.52676867  0.41444031    -0.14700
C383        C  0.94237357  0.56056110  0.40873990     0.35900
C384        C  0.92135171  0.55974052  0.36875854    -0.26100
C385        C  0.92446114  0.52635116  0.33359911    -0.15400
C386        C  0.95006173  0.49497979  0.33690238     0.37000
N387        N  0.95422646  0.46150840  0.30015535    -0.89600
H388        H  0.98752244  0.46805504  0.38141447     0.18100
H389        H  0.90159890  0.58385088  0.36646721     0.18100
N390        N  0.93870069  0.59505015  0.44418339    -0.88600
H391        H  0.97364126  0.44007597  0.30841912     0.35400
H392        H  0.96046990  0.47804364  0.26841715     0.40500
H393        H  0.91520803  0.59380137  0.45785094     0.40200
H394        H  0.94133080  0.62582977  0.42695672     0.35100
C395        C  0.92130798  0.53571432  0.14489709    -0.26700
C396        C  0.92139653  0.49663325  0.17278724    -0.14700
C397        C  0.94139163  0.46023534  0.15888698     0.35900
C398        C  0.96073066  0.46353713  0.11746517    -0.26100
C399        C  0.96063464  0.50279605  0.08979892    -0.15400
C400        C  0.94053660  0.53916038  0.10355264     0.37000
N401        N  0.93989973  0.57959407  0.07554726    -0.89600
H402        H  0.90589242  0.56370777  0.15505116     0.18100
H403        H  0.97602680  0.43546081  0.10699983     0.18100
N404        N  0.94278473  0.42034814  0.18732446    -0.88600
H405        H  0.92355635  0.60291204  0.09013958     0.35400
H406        H  0.96276663  0.59369466  0.07787747     0.40500
H407        H  0.96669548  0.41513058  0.19837780     0.40200
H408        H  0.93634574  0.39355599  0.16533072     0.35100
C409        C  0.71022794  0.64930366  0.00995657    -0.26700
C410        C  0.69975265  0.66870025  0.05351296    -0.14700
C411        C  0.66918317  0.65651658  0.07183852     0.35900
C412        C  0.65100776  0.62366495  0.04828096    -0.26100
C413        C  0.66256234  0.60247496  0.00650947    -0.15400
C414        C  0.69198420  0.61666113  0.98643336     0.37000
N415        N  0.69520033  0.60464872  0.43777194    -0.89600
H416        H  0.73309385  0.65874133  0.99433890     0.18100
H417        H  0.62845903  0.61320699  0.06416348     0.18100
N418        N  0.65645125  0.67699588  0.11458440    -0.88600
H419        H  0.71892199  0.59235925  0.44026864     0.35400
H420        H  0.69509776  0.63214731  0.41453503     0.40500
H421        H  0.65228984  0.65185624  0.13986609     0.40200
H422        H  0.63423055  0.69207717  0.10597109     0.35100
C423        C  0.69420715  0.43379707  0.46415788    -0.26700
C424        C  0.66009465  0.43612720  0.46240133    -0.14700
C425        C  0.64361282  0.39681925  0.44900396     0.35900
C426        C  0.66100377  0.35854101  0.43380200    -0.26100
C427        C  0.69483286  0.35768971  0.43331603    -0.15400
C428        C  0.71158273  0.39545286  0.44942445     0.37000
N429        N  0.74769526  0.39419783  0.95603794    -0.89600
H430        H  0.71032697  0.46010384  0.98238764     0.18100
H431        H  0.64795564  0.32935528  0.42215807     0.18100
N432        N  0.60903851  0.39586324  0.44990586    -0.88600
H433        H  0.75497584  0.40012775  0.99151718     0.35400
H434        H  0.75386202  0.39325300  0.41316642     0.40500
H435        H  0.60214767  0.37012745  0.47299243     0.40200
H436        H  0.60090602  0.38820932  0.41524286     0.35100
C437        C  0.34658716  0.34589177  0.43843360    -0.26700
C438        C  0.31279303  0.34302439  0.43826311    -0.14700
C439        C  0.29429504  0.37851825  0.45787502     0.35900
C440        C  0.30977595  0.41683022  0.47496669    -0.26100
C441        C  0.34357432  0.42201947  0.47123186    -0.15400
C442        C  0.36204716  0.38444165  0.45551925     0.37000
N443        N  0.39453511  0.37787265  0.97164693    -0.89600
H444        H  0.36110249  0.31831449  0.42457559     0.18100
H445        H  0.29446401  0.44258390  0.48981514     0.18100
N446        N  0.25957643  0.37656768  0.45828568    -0.88600
H447        H  0.40316173  0.37150672  0.93687878     0.35400
H448        H  0.40223974  0.35152402  0.99379868     0.40500
H449        H  0.25170179  0.37664838  0.42245063     0.40200
H450        H  0.24941975  0.40509707  0.47433910     0.35100
C451        C  0.32616473  0.58404663  0.06095779    -0.26700
C452        C  0.33092500  0.58236287  0.01103496    -0.14700
C453        C  0.31387501  0.61256689  0.98127302     0.35900
C454        C  0.29273241  0.64463158  0.00202055    -0.26100
C455        C  0.28832374  0.64670621  0.05229192    -0.15400
C456        C  0.30526960  0.61582299  0.08178495     0.37000
N457        N  0.30042918  0.61544942  0.13290406    -0.89600
H458        H  0.34301784  0.56145386  0.58390383     0.18100
H459        H  0.27990599  0.66803448  0.97883870     0.18100
N460        N  0.31747532  0.61006450  0.93004609    -0.88600
H461        H  0.33111258  0.62154255  0.65163727     0.35400
H462        H  0.29196376  0.58399165  0.14264663     0.40500
H463        H  0.32546973  0.64101726  0.91787562     0.40200
H464        H  0.29470987  0.60462796  0.91502168     0.35100
C465        C  0.42789835  0.53322957  0.30873072    -0.26700
C466        C  0.45486408  0.56059647  0.31578787    -0.14700
C467        C  0.45798804  0.58173686  0.36144196     0.35900
C468        C  0.43795719  0.56868425  0.39993194    -0.26100
C469        C  0.41202558  0.53953088  0.39270010    -0.15400
C470        C  0.40518896  0.52604550  0.34498165     0.37000
N471        N  0.37493133  0.50584216  0.33296845    -0.89600
H472        H  0.42410280  0.51701034  0.27438118     0.18100
H473        H  0.44263978  0.58208016  0.43541907     0.18100
N474        N  0.47918207  0.61845363  0.36942249    -0.88600
H475        H  0.37363602  0.49855639  0.29616950     0.35400
H476        H  0.35661218  0.52940234  0.34005342     0.40500
H477        H  0.49010439  0.62864955  0.33748827     0.40200
H478        H  0.49699106  0.60825832  0.39394472     0.35100
C479        C  0.44397494  0.57783016  0.12142283    -0.26700
C480        C  0.46482314  0.54537152  0.14132337    -0.14700
C481        C  0.46328031  0.50108052  0.12375680     0.35900
C482        C  0.44211383  0.49084907  0.08591952    -0.26100
C483        C  0.42110034  0.52337066  0.06587159    -0.15400
C484        C  0.42230436  0.56745469  0.08425945     0.37000
N485        N  0.40053729  0.60162249  0.06745140    -0.89600
H486        H  0.44384169  0.61145601  0.13595543     0.18100
H487        H  0.44167457  0.45676043  0.07286689     0.18100
N488        N  0.48124247  0.46517137  0.14567653    -0.88600
H489        H  0.41423516  0.62785915  0.05399928     0.35400
H490        H  0.38735841  0.61375172  0.09694353     0.40500
H491        H  0.47571976  0.46438240  0.18243100     0.40200
H492        H  0.50582672  0.47105388  0.14173524     0.35100
C493        C  0.55157966  0.58919783  0.33925575    -0.26700
C494        C  0.53016030  0.55554830  0.32486894    -0.14700
C495        C  0.53034057  0.51480307  0.35067430     0.35900
C496        C  0.55179059  0.50851785  0.38924639    -0.26100
C497        C  0.57370363  0.54167831  0.40273316    -0.15400
C498        C  0.57296579  0.58275971  0.37827386     0.37000
N499        N  0.59511680  0.61698943  0.39116070    -0.89600
H500        H  0.55229596  0.62019204  0.31914237     0.18100
H501        H  0.55240312  0.47651786  0.40754682     0.18100
N502        N  0.51079579  0.47800491  0.33647967    -0.88600
H503        H  0.58169012  0.64572008  0.39999026     0.35400
H504        H  0.60914609  0.62416109  0.36091897     0.40500
H505        H  0.51545710  0.47059206  0.30032565     0.40200
H506        H  0.48651441  0.48713805  0.34012902     0.35100
C507        C  0.56405056  0.51526067  0.15087901    -0.26700
C508        C  0.53904557  0.54745490  0.14687260    -0.14700
C509        C  0.53617509  0.57141232  0.10289566     0.35900
C510        C  0.55558893  0.55914089  0.06342349    -0.26100
C511        C  0.58083447  0.52726139  0.06745716    -0.15400
C512        C  0.58580593  0.50653828  0.11292140     0.37000
N513        N  0.61351999  0.47808669  0.12146166    -0.89600
H514        H  0.56709159  0.49719566  0.18444078     0.18100
H515        H  0.55124983  0.57622364  0.02967047     0.18100
N516        N  0.51603486  0.61064470  0.09768149    -0.88600
H517        H  0.61347377  0.46560125  0.15664438     0.35400
H518        H  0.63402984  0.49781645  0.11843659     0.40500
H519        H  0.50547760  0.62048790  0.13016722     0.40200
H520        H  0.49786461  0.60366595  0.07277351     0.35100
C521        C  0.66274577  0.12063523  0.49104246    -0.26700
C522        C  0.66158656  0.08195168  0.46192602    -0.14700
C523        C  0.67995229  0.08107528  0.41878104     0.35900
C524        C  0.69715371  0.11858802  0.40458456    -0.26100
C525        C  0.69741595  0.15712297  0.43292646    -0.15400
C526        C  0.68056792  0.15793229  0.47700482     0.37000
N527        N  0.68017985  0.19672514  0.50724780    -0.89600
H528        H  0.64964806  0.12298122  0.52449467     0.18100
H529        H  0.71041789  0.11759504  0.37090811     0.18100
N530        N  0.70737360  0.06336136  0.02085965    -0.88600
H531        H  0.67125536  0.22380837  0.48719649     0.35400
H532        H  0.70391281  0.20344035  0.51744235     0.40500
H533        H  0.69368634  0.06538067  0.05245302     0.40200
H534        H  0.73059144  0.07390439  0.02965747     0.35100
C535        C  0.65510671  0.91022068  0.06015850    -0.26700
C536        C  0.66063498  0.92116699  0.01189299    -0.14700
C537        C  0.68544814  0.89861217  0.98675387     0.35900
C538        C  0.70409938  0.86546686  0.01014807    -0.26100
C539        C  0.69869354  0.85436558  0.05885185    -0.15400
C540        C  0.67322092  0.87693152  0.08365039     0.37000
N541        N  0.66567914  0.86834629  0.13311891    -0.89600
H542        H  0.63805061  0.92972792  0.08102996     0.18100
H543        H  0.72321021  0.84881638  0.99003594     0.18100
N544        N  0.69226991  0.91011240  0.93775694    -0.88600
H545        H  0.68612584  0.87408316  0.15418653     0.35400
H546        H  0.65861756  0.83513823  0.13662007     0.40500
H547        H  0.66311185  0.85923984  0.41999439     0.40200
H548        H  0.71627080  0.92032991  0.93587349     0.35100
C549        C  0.31934558  0.86094831  0.98347483    -0.26700
C550        C  0.32663199  0.89963953  0.01010004    -0.14700
C551        C  0.31048788  0.90686842  0.05462887     0.35900
C552        C  0.28990826  0.87462092  0.07300332    -0.26100
C553        C  0.28383049  0.83557670  0.04739906    -0.15400
C554        C  0.29777663  0.82905606  0.00154250     0.37000
N555        N  0.29127641  0.78912929  0.97464416    -0.89600
H556        H  0.33750298  0.85297951  0.45916130     0.18100
H557        H  0.27874062  0.88003004  0.10790588     0.18100
N558        N  0.31558050  0.94672465  0.08211806    -0.88600
H559        H  0.31737259  0.78264563  0.45887751     0.35400
H560        H  0.26694412  0.79036808  0.96458155     0.40500
H561        H  0.32449850  0.93750623  0.11601968     0.40200
H562        H  0.29324447  0.96287645  0.08700121     0.35100
C563        C  0.32013345  0.08004658  0.49292119    -0.26700
C564        C  0.34898073  0.06446630  0.47132786    -0.14700
C565        C  0.36422119  0.09305218  0.43798273     0.35900
C566        C  0.34818539  0.13224564  0.42202679    -0.26100
C567        C  0.31749249  0.14470177  0.43953275    -0.15400
C568        C  0.30438252  0.11941972  0.47754373     0.37000
N569        N  0.27451573  0.13251821  0.49984650    -0.89600
H570        H  0.30893833  0.06077963  0.52120431     0.18100
H571        H  0.35958558  0.15237865  0.39463253     0.18100
N572        N  0.39561915  0.08277598  0.41933254    -0.88600
H573        H  0.27874062  0.13675171  0.53672057     0.35400
H574        H  0.25821851  0.10650150  0.49563901     0.40500
H575        H  0.41109941  0.10801399  0.43045845     0.40200
H576        H  0.39435050  0.08448489  0.38179342     0.35100
C577        C  0.42535516  0.01907282  0.08507110    -0.26700
C578        C  0.42595562  0.97930432  0.05835669    -0.14700
C579        C  0.44771256  0.94465550  0.07136069     0.35900
C580        C  0.46753150  0.94940544  0.11171934    -0.26100
C581        C  0.46541448  0.98771825  0.14034733    -0.15400
C582        C  0.44468420  0.02339618  0.12659139     0.37000
N583        N  0.44227639  0.06275259  0.15611672    -0.89600
H584        H  0.40820269  0.04535467  0.07552734     0.18100
H585        H  0.48313090  0.92177188  0.12254566     0.18100
N586        N  0.44858727  0.90354770  0.04506745    -0.88600
H587        H  0.46471885  0.07820571  0.15544449     0.35400
H588        H  0.42558990  0.08555603  0.14142613     0.40500
H589        H  0.44281498  0.87774004  0.06875222     0.40200
H590        H  0.47229453  0.89800167  0.03323558     0.35100
C591        C  0.40682565  0.99218627  0.36235108    -0.26700
C592        C  0.41483899  0.96145799  0.39842226    -0.14700
C593        C  0.44258642  0.93396170  0.39287814     0.35900
C594        C  0.46224358  0.93876090  0.35217145    -0.26100
C595        C  0.45544869  0.97180407  0.31743937    -0.15400
C596        C  0.42726648  0.99869249  0.32286221     0.37000
N597        N  0.41981376  0.03361147  0.28912244    -0.89600
H598        H  0.38466368  0.01164030  0.36522831     0.18100
H599        H  0.48308434  0.91679673  0.34797129     0.18100
N600        N  0.45177730  0.90180413  0.42861052    -0.88600
H601        H  0.39678851  0.02807376  0.27506336     0.35400
H602        H  0.41921534  0.06401565  0.30761926     0.40500
H603        H  0.43270104  0.87979838  0.43341462     0.40200
H604        H  0.45544949  0.91907242  0.46075176     0.35100
C605        C  0.54940293  0.94440795  0.33836093    -0.26700
C606        C  0.52861829  0.98030767  0.32606203    -0.14700
C607        C  0.52857452  0.01924690  0.35471438     0.35900
C608        C  0.54946222  0.02187881  0.39413023    -0.26100
C609        C  0.57146891  0.98706425  0.40501308    -0.15400
C610        C  0.57104077  0.94752666  0.37749594     0.37000
N611        N  0.59374723  0.91192256  0.38757708    -0.89600
H612        H  0.54985791  0.91484380  0.31580644     0.18100
H613        H  0.54991860  0.05260725  0.41480119     0.18100
N614        N  0.50933354  0.05785847  0.34258955    -0.88600
H615        H  0.61687368  0.92388185  0.38069429     0.35400
H616        H  0.59029291  0.88520440  0.36395134     0.40500
H617        H  0.51503143  0.06769078  0.30749420     0.40200
H618        H  0.48501803  0.04936264  0.34370722     0.35100
C619        C  0.57330305  0.96080775  0.08983349    -0.26700
C620        C  0.57754229  0.00281748  0.06823712    -0.14700
C621        C  0.55905220  0.03962683  0.08564849     0.35900
C622        C  0.53879666  0.03433395  0.12577328    -0.26100
C623        C  0.53648797  0.99291086  0.14880833    -0.15400
C624        C  0.55362969  0.95586090  0.13045091     0.37000
N625        N  0.55097629  0.91303649  0.15299080    -0.89600
H626        H  0.58545175  0.93141387  0.07587211     0.18100
H627        H  0.52493852  0.06273893  0.13914681     0.18100
N628        N  0.55975180  0.08200844  0.06178465    -0.88600
H629        H  0.54260177  0.89047146  0.12726796     0.35400
H630        H  0.57410565  0.90248169  0.16360086     0.40500
H631        H  0.56685921  0.10601786  0.08686348     0.40200
H632        H  0.53628146  0.09014603  0.05054368     0.35100
C633        C  0.51971532  0.97960265  0.69346524     0.01900
C634        C  0.48583876  0.97943831  0.68938194     0.01900
C635        C  0.46702068  0.97361938  0.73054737    -0.18600
C636        C  0.48096303  0.97050299  0.77655205     0.01900
C637        C  0.51507946  0.97114804  0.78103657     0.01900
C638        C  0.53402180  0.97497473  0.73917144    -0.18600
H639        H  0.56008897  0.97633647  0.74239271     0.03900
H640        H  0.44102130  0.97160301  0.72659754     0.03900
C641        C  0.35215791  0.93714952  0.49731787     0.86100
C642        C  0.33706476  0.97980919  0.98680039    -0.54100
C643        C  0.35849674  0.01325252  0.97809159     0.09100
C644        C  0.39387372  0.99539939  0.97592484     0.20000
C645        C  0.37146750  0.92490442  0.94719256    -0.54800
C646        C  0.39352782  0.95742192  0.93805943     0.09200
C647        C  0.37743353  0.94196465  0.53691772    -0.54400
C648        C  0.40010099  0.97312314  0.52835863     0.09700
H649        H  0.31108142  0.98512500  0.98754537     0.14200
H650        H  0.41249850  0.02074536  0.96935232     0.00000
H651        H  0.36848961  0.89687767  0.92304757     0.14500
H652        H  0.37775871  0.92138682  0.56920992     0.14300
C653        C  0.64212239  0.04202405  0.97698637     0.86100
C654        C  0.61974919  0.03063365  0.93464573    -0.54100
C655        C  0.60117315  0.99403944  0.94152417     0.09100
C656        C  0.60550234  0.97077973  0.48651567     0.20000
C657        C  0.61901377  0.04354360  0.51982124    -0.54800
C658        C  0.60061243  0.00624007  0.52612215     0.09200
C659        C  0.66231846  0.99894419  0.98341971    -0.54400
C660        C  0.64230318  0.96145999  0.48663600     0.09700
H661        H  0.61804859  0.05037629  0.90188498     0.14200
H662        H  0.59073531  0.94047612  0.49136382     0.00000
H663        H  0.61858442  0.07042785  0.54584955     0.14500
H664        H  0.68844213  0.99721551  0.98285583     0.14300
C665        C  0.51638716  0.54897590  0.69154079     0.01900
C666        C  0.48224830  0.54745718  0.68852841     0.01900
C667        C  0.46392368  0.55246148  0.73079098    -0.18600
C668        C  0.47804959  0.55284372  0.77721341     0.01900
C669        C  0.51241469  0.55313177  0.78039788     0.01900
C670        C  0.53070451  0.55306278  0.73749817    -0.18600
H671        H  0.55682218  0.55371488  0.74015885     0.03900
H672        H  0.43782822  0.55296248  0.72743830     0.03900
C673        C  0.35785711  0.46251012  0.98695268     0.86100
C674        C  0.37732639  0.47173552  0.94128032    -0.54100
C675        C  0.39192294  0.51237242  0.93917494     0.09100
C676        C  0.38786423  0.54575296  0.48343366     0.20000
C677        C  0.38446401  0.47130631  0.51888596    -0.54800
C678        C  0.39943306  0.51204673  0.52254492     0.09200
C679        C  0.33454346  0.50306348  0.99095517    -0.54400
C680        C  0.35107907  0.54828908  0.49010120     0.09700
H681        H  0.38036260  0.44624049  0.91404644     0.14200
H682        H  0.39922849  0.57886528  0.48482019     0.00000
H683        H  0.38884605  0.44401646  0.54390284     0.14500
H684        H  0.30878247  0.50165276  0.99660177     0.14300
C685        C  0.64345631  0.48080351  0.97406956     0.86100
C686        C  0.66381379  0.52272019  0.98262985    -0.54100
C687        C  0.64301176  0.56048535  0.48814736     0.09100
C688        C  0.60638240  0.55295971  0.48618056     0.20000
C689        C  0.61846313  0.47805055  0.51606089    -0.54800
C690        C  0.60060485  0.51650189  0.52471001     0.09200
C691        C  0.62202708  0.49340865  0.93111782    -0.54400
C692        C  0.60333339  0.53082961  0.93738953     0.09700
H693        H  0.68970743  0.52286353  0.98662333     0.14200
H694        H  0.59248048  0.58454400  0.49095491     0.00000
H695        H  0.61668737  0.44794457  0.53742373     0.14500
H696        H  0.62036724  0.47281639  0.89898320     0.14300
C697        C  0.98317347  0.51054745  0.54875538     0.01900
C698        C  0.01718444  0.50370796  0.54992851     0.01900
C699        C  0.03267576  0.50712364  0.00448437    -0.18600
C700        C  0.01703701  0.51347324  0.96001224     0.01900
C701        C  0.98304135  0.51874202  0.95849019     0.01900
C702        C  0.96579846  0.51446854  0.00185069    -0.18600
H703        H  0.93963930  0.51654670  0.00100035     0.03900
H704        H  0.05882941  0.50510472  0.00483802     0.03900
C705        C  0.14878986  0.44733044  0.76258229     0.86100
C706        C  0.12914540  0.45902622  0.80755891    -0.54100
C707        C  0.10717861  0.49316335  0.80222332     0.09100
C708        C  0.10879129  0.51536543  0.75215851     0.20000
C709        C  0.12328874  0.44118738  0.72245069    -0.54800
C710        C  0.10213919  0.47698689  0.71631591     0.09200
C711        C  0.16512344  0.49127051  0.74910846    -0.54400
C712        C  0.14449960  0.52683356  0.74455724     0.09700
H713        H  0.13152558  0.43997364  0.84073200     0.14200
H714        H  0.09338637  0.54539580  0.74802545     0.00000
H715        H  0.12242181  0.41082286  0.70124813     0.14500
H716        H  0.19046991  0.49501117  0.74129463     0.14300
C717        C  0.85503088  0.46958745  0.76646292     0.86100
C718        C  0.83589041  0.51190244  0.75059793    -0.54100
C719        C  0.85474111  0.54775620  0.74087258     0.09100
C720        C  0.89117225  0.53876946  0.74837510     0.20000
C721        C  0.87944112  0.46237742  0.72500434    -0.54800
C722        C  0.89860424  0.49833011  0.71555090     0.09200
C723        C  0.87481537  0.48581578  0.80948974    -0.54400
C724        C  0.89444016  0.52063922  0.79999527     0.09700
H725        H  0.81010850  0.51425743  0.74483959     0.14200
H726        H  0.90643232  0.56825480  0.74166501     0.00000
H727        H  0.87961702  0.43255780  0.70281070     0.14500
H728        H  0.87485390  0.46931118  0.84435906     0.14300
C729        C  0.02006045  0.98494534  0.56335278     0.01900
C730        C  0.98588872  0.98302525  0.56106431     0.01900
C731        C  0.96971133  0.97309327  0.01373170    -0.18600
C732        C  0.98753282  0.97355882  0.97043840     0.01900
C733        C  0.02145626  0.97897721  0.97303688     0.01900
C734        C  0.03632560  0.98163418  0.01824049    -0.18600
H735        H  0.06243465  0.98364286  0.02024231     0.03900
H736        H  0.94380084  0.96886716  0.01185673     0.03900
C737        C  0.15164881  0.03866765  0.76818472     0.86100
C738        C  0.16773008  0.99352705  0.75551402    -0.54100
C739        C  0.14691886  0.95884313  0.75288434     0.09100
C740        C  0.11157831  0.97194618  0.76422757     0.20000
C741        C  0.12507752  0.04373465  0.72920395    -0.54800
C742        C  0.10396164  0.00895240  0.72751650     0.09200
C743        C  0.13382863  0.02943823  0.81527757    -0.54400
C744        C  0.11177391  0.99597370  0.81353831     0.09700
H745        H  0.19242813  0.98921874  0.74342759     0.14200
H746        H  0.09471476  0.94381613  0.76133562     0.00000
H747        H  0.12490691  0.06989908  0.70221953     0.14500
H748        H  0.13812349  0.04928038  0.84732353     0.14300
C749        C  0.85774301  0.03754707  0.77801056     0.86100
C750        C  0.87704987  0.02118435  0.82189085    -0.54100
C751        C  0.89668439  0.98499146  0.81372781     0.09100
C752        C  0.89354342  0.96574457  0.76243965     0.20000
C753        C  0.88267687  0.04239110  0.73716515    -0.54800
C754        C  0.90147102  0.00498415  0.72863597     0.09200
C755        C  0.83859247  0.99594780  0.76288131    -0.54400
C756        C  0.85714919  0.95863336  0.75500589     0.09700
H757        H  0.87670793  0.03836518  0.85637028     0.14200
H758        H  0.90788593  0.93472218  0.75619782     0.00000
H759        H  0.88436289  0.07252188  0.71568376     0.14500
H760        H  0.81292319  0.99489496  0.75631333     0.14300
O761        O  0.73928663  0.30360938  0.93879336    -0.74800
O762        O  0.79114965  0.21119773  0.88082100    -0.74800
O763        O  0.79087508  0.30179218  0.87912169    -0.74900
O764        O  0.73916372  0.21256438  0.94020550    -0.74900
O765        O  0.70661671  0.21276137  0.87630630    -0.74900
O766        O  0.75725810  0.30229660  0.81624959    -0.74800
O767        O  0.75820774  0.21115201  0.81718440    -0.74800
O768        O  0.70575410  0.30301579  0.87584397    -0.74900
Ni769      Ni  0.76629044  0.25726665  0.91205827     1.25400
Ni770      Ni  0.73085530  0.25726542  0.84411050     1.25400
C771        C  0.71436789  0.31907252  0.91658454     0.87400
C772        C  0.78292777  0.19545533  0.83978855     0.87300
C773        C  0.78207611  0.31735937  0.83802134     0.87400
C774        C  0.71425442  0.19794182  0.91804096     0.87500
O775        O  0.76191095  0.71397787  0.68049058    -0.74800
O776        O  0.70880994  0.80559794  0.62269870    -0.74800
O777        O  0.70906331  0.71532741  0.62154051    -0.74900
O778        O  0.76154660  0.80402007  0.68148067    -0.74900
O779        O  0.79393944  0.80398020  0.61759320    -0.74900
O780        O  0.74069917  0.71613187  0.55689477    -0.74800
O781        O  0.74103329  0.80618069  0.55856200    -0.74800
O782        O  0.79348515  0.71341281  0.61545030    -0.74900
Ni783      Ni  0.73420384  0.75973267  0.65381072     1.25400
Ni784      Ni  0.76847265  0.75996829  0.58488652     1.25400
C785        C  0.78653066  0.69870032  0.65749018     0.87400
C786        C  0.71590911  0.82073806  0.58091009     0.87300
C787        C  0.71570142  0.70163353  0.57884678     0.87400
C788        C  0.78674978  0.81823750  0.65991746     0.87500
O789        O  0.25882657  0.19793000  0.81563760    -0.74800
O790        O  0.30505987  0.28763954  0.88544059    -0.74800
O791        O  0.30682733  0.19710655  0.88198749    -0.74900
O792        O  0.25696348  0.28868266  0.81850435    -0.74900
O793        O  0.21993935  0.28580170  0.87672355    -0.74900
O794        O  0.27040745  0.19499854  0.94083469    -0.74800
O795        O  0.26796347  0.28579818  0.94355383    -0.74800
O796        O  0.22230960  0.19617067  0.87468889    -0.74900
Ni797      Ni  0.28326137  0.24297188  0.84830835     1.25400
Ni798      Ni  0.24395430  0.24063831  0.91112679     1.25400
C799        C  0.23285403  0.18250902  0.83387936     0.87400
C800        C  0.29382373  0.30188025  0.92577004     0.87300
C801        C  0.29664124  0.18032578  0.92152235     0.87400
C802        C  0.23005825  0.30192614  0.83683398     0.87500
O803        O  0.27976665  0.69899268  0.62254555    -0.74800
O804        O  0.22729025  0.78811352  0.68380526    -0.74800
O805        O  0.22920506  0.69811362  0.68438541    -0.74900
O806        O  0.27739100  0.78927541  0.62114625    -0.74900
O807        O  0.24386092  0.78652671  0.55820147    -0.74900
O808        O  0.19473521  0.69752859  0.62284746    -0.74800
O809        O  0.19362146  0.78819051  0.62096190    -0.74800
O810        O  0.24553826  0.69665595  0.56057263    -0.74900
Ni811      Ni  0.25462775  0.74364948  0.65516398     1.25400
Ni812      Ni  0.21813260  0.74212768  0.58850185     1.25400
C813        C  0.27154887  0.68324482  0.58153129     0.87400
C814        C  0.20202136  0.80307736  0.66238699     0.87300
C815        C  0.20378260  0.68289856  0.66416041     0.87400
C816        C  0.26873943  0.80236982  0.57900484     0.87500
C817        C  0.80143041  0.86136378  0.73369224    -0.26700
C818        C  0.80755780  0.85138292  0.68490938    -0.14700
C819        C  0.83307480  0.87361048  0.66147565     0.35900
C820        C  0.85050717  0.90646906  0.68620670    -0.26100
C821        C  0.84292577  0.91790866  0.73389116    -0.15400
C822        C  0.81868563  0.89416368  0.75816855     0.37000
N823        N  0.81127928  0.90236505  0.80785388    -0.89600
H824        H  0.78269681  0.84403905  0.75306049     0.18100
H825        H  0.86904414  0.92462567  0.66726270     0.18100
N826        N  0.84088489  0.86405475  0.61224480    -0.92600
H827        H  0.80310806  0.93532494  0.81189369     0.35400
H828        H  0.83247831  0.89803451  0.82788264     0.40500
H829        H  0.86511459  0.85374702  0.61072612     0.40200
H830        H  0.83840245  0.89366238  0.59250316     0.35100
C831        C  0.83540323  0.15710661  0.82242489    -0.26700
C832        C  0.80168263  0.15748985  0.81933418    -0.14700
C833        C  0.78612364  0.12062395  0.79893263     0.35900
C834        C  0.80453891  0.08333766  0.78381009    -0.26100
C835        C  0.83855403  0.08123148  0.78889897    -0.15400
C836        C  0.85400044  0.12040735  0.80661913     0.37000
N837        N  0.88843106  0.12491052  0.80879159    -0.89600
H838        H  0.84753682  0.18590658  0.83712413     0.18100
H839        H  0.79135319  0.05610839  0.76880296     0.18100
N840        N  0.75145506  0.12042359  0.79520416    -0.88600
H841        H  0.89825172  0.12170441  0.77435969     0.35400
H842        H  0.89880514  0.10126317  0.83178608     0.40500
H843        H  0.74209486  0.12050095  0.83019830     0.40200
H844        H  0.74361876  0.09104197  0.77887878     0.35100
C845        C  0.15800945  0.87682236  0.75317999    -0.26700
C846        C  0.15667831  0.91720996  0.72773828    -0.14700
C847        C  0.16784928  0.91874895  0.67960123     0.35900
C848        C  0.18064313  0.87992704  0.65824463    -0.26100
C849        C  0.18370342  0.84022642  0.68447947    -0.15400
C850        C  0.17206351  0.83850998  0.73234982     0.37000
N851        N  0.17433365  0.79848026  0.76051754    -0.89600
H852        H  0.14962364  0.87567038  0.79014174     0.18100
H853        H  0.18994638  0.88125775  0.62177084     0.18100
N854        N  0.16759900  0.96021634  0.65337391    -0.88600
H855        H  0.19869384  0.78970538  0.76482715     0.35400
H856        H  0.16294802  0.77292088  0.74165782     0.40500
H857        H  0.14359472  0.97008282  0.64797615     0.40200
H858        H  0.17768041  0.95582873  0.61913699     0.35100
C859        C  0.20776539  0.07249812  0.77983797    -0.26700
C860        C  0.17395261  0.07901636  0.77445437    -0.14700
C861        C  0.16106708  0.12265944  0.78415403     0.35900
C862        C  0.18124326  0.15624067  0.80100866    -0.26100
C863        C  0.21424836  0.14844154  0.80824274    -0.15400
C864        C  0.22774882  0.10645755  0.79650635     0.37000
N865        N  0.26127974  0.09630746  0.80452027    -0.89600
H866        H  0.21921959  0.04031134  0.77481215     0.18100
H867        H  0.17076107  0.18861861  0.81002817     0.18100
N868        N  0.12745674  0.13409037  0.77929752    -0.88600
H869        H  0.26655617  0.10177945  0.84090217     0.35400
H870        H  0.27498544  0.11805574  0.78374035     0.40500
H871        H  0.11344796  0.11246145  0.79966115     0.40200
H872        H  0.12083017  0.13268690  0.74308863     0.35100
C873        C  0.03841288  0.03058251  0.63324339    -0.26700
C874        C  0.03837913  0.98935879  0.60899620    -0.14700
C875        C  0.05806860  0.95372965  0.62636836     0.35900
C876        C  0.07846071  0.96100467  0.66560010    -0.26100
C877        C  0.07986354  0.00278794  0.68839212    -0.15400
C878        C  0.05885644  0.03742248  0.67302731     0.37000
N879        N  0.05794278  0.07924734  0.69807465    -0.89600
H880        H  0.02303553  0.05778213  0.62058407     0.18100
H881        H  0.09404535  0.93372907  0.67736713     0.18100
N882        N  0.05828179  0.90988371  0.60499510    -0.88600
H883        H  0.03437358  0.08476522  0.71051252     0.35400
H884        H  0.06324928  0.10446248  0.67343115     0.40500
H885        H  0.04131200  0.90730910  0.57739118     0.40200
H886        H  0.05110787  0.88734839  0.63154333     0.35100
C887        C  0.07908803  0.02748100  0.88179782    -0.26700
C888        C  0.08739489  0.99011024  0.85313753    -0.14700
C889        C  0.07237792  0.94902887  0.86340242     0.35900
C890        C  0.04935255  0.94661469  0.90073784    -0.26100
C891        C  0.04253239  0.98369140  0.93018564    -0.15400
C892        C  0.05861237  0.02414555  0.92132945     0.37000
N893        N  0.05522392  0.06240861  0.95228126    -0.89600
H894        H  0.08903543  0.05995986  0.87449771     0.18100
H895        H  0.03801053  0.91502249  0.90835896     0.18100
N896        N  0.08134159  0.90918542  0.83790148    -0.88600
H897        H  0.06528754  0.05486652  0.98585309     0.35400
H898        H  0.03084648  0.07039880  0.95717127     0.40500
H899        H  0.06055238  0.89636476  0.82199384     0.40200
H900        H  0.09002612  0.88576099  0.86288649     0.35100
C901        C  0.94825649  0.93617582  0.91507098    -0.26700
C902        C  0.96913361  0.97201326  0.92403766    -0.14700
C903        C  0.96785774  0.00917490  0.89280599     0.35900
C904        C  0.94618734  0.01007957  0.85408523    -0.26100
C905        C  0.92405335  0.97581438  0.84706179    -0.15400
C906        C  0.92547680  0.93806563  0.87740004     0.37000
N907        N  0.90284501  0.90271359  0.87261113    -0.89600
H908        H  0.94836813  0.90776840  0.93927278     0.18100
H909        H  0.94495614  0.03955536  0.83140171     0.18100
N910        N  0.98644081  0.04793364  0.90242578    -0.88600
H911        H  0.90473506  0.88980176  0.83771296     0.35400
H912        H  0.87960672  0.91630020  0.87692221     0.40500
H913        H  0.97051850  0.07495461  0.90776951     0.40200
H914        H  0.00027966  0.05465058  0.87184776     0.35100
C915        C  0.91708280  0.02278833  0.64349846    -0.26700
C916        C  0.92449498  0.00106955  0.68714272    -0.14700
C917        C  0.95302449  0.97471144  0.68967901     0.35900
C918        C  0.97184590  0.96765763  0.64814927    -0.26100
C919        C  0.96471757  0.98976611  0.60457640    -0.15400
C920        C  0.93729593  0.01868677  0.60294535     0.37000
N921        N  0.93010179  0.04415386  0.56020619    -0.89600
H922        H  0.89527389  0.04304416  0.64066666     0.18100
H923        H  0.99226359  0.94477504  0.65039878     0.18100
N924        N  0.96375770  0.95622811  0.73462926    -0.88600
H925        H  0.90909822  0.06356209  0.56478509     0.35400
H926        H  0.94896917  0.06641605  0.55501847     0.40500
H927        H  0.98663804  0.96880564  0.74215852     0.40200
H928        H  0.96611201  0.92161072  0.73057348     0.35100
C929        C  0.83402644  0.35275638  0.81651267    -0.26700
C930        C  0.80029500  0.35408601  0.81593655    -0.14700
C931        C  0.78423287  0.39099942  0.79513578     0.35900
C932        C  0.80199845  0.42696631  0.77747771    -0.26100
C933        C  0.83610885  0.42724881  0.77961864    -0.15400
C934        C  0.85207644  0.38784632  0.79765332     0.37000
N935        N  0.88650571  0.38158850  0.79724797    -0.89600
H936        H  0.84657477  0.32378815  0.83131582     0.18100
H937        H  0.78819587  0.45457733  0.76302605     0.18100
N938        N  0.74964180  0.39300869  0.79364445    -0.88600
H939        H  0.89770891  0.40558987  0.81832255     0.35400
H940        H  0.89501387  0.38298537  0.76196337     0.40500
H941        H  0.74251861  0.39680071  0.75769518     0.40200
H942        H  0.74189419  0.42138252  0.81264012     0.35100
C943        C  0.83204795  0.62483980  0.74736300    -0.26700
C944        C  0.84089443  0.58849599  0.71800136    -0.14700
C945        C  0.83317196  0.58975506  0.66819457     0.35900
C946        C  0.81675569  0.62706906  0.64934038    -0.26100
C947        C  0.80667507  0.66254115  0.67892076    -0.15400
C948        C  0.81483303  0.66187410  0.72836281     0.37000
N949        N  0.80552959  0.69862119  0.75899508    -0.89600
H950        H  0.83775518  0.62365995  0.78547338     0.18100
H951        H  0.81043464  0.62730561  0.61141693     0.18100
N952        N  0.84020050  0.55329711  0.63588133    -0.88600
H953        H  0.81764336  0.72687267  0.74689904     0.35400
H954        H  0.81326197  0.69283852  0.79436056     0.40500
H955        H  0.85143683  0.52642068  0.65322524     0.40200
H956        H  0.85641286  0.56470807  0.60997738     0.35100
C957        C  0.14167366  0.59324903  0.69070101    -0.26700
C958        C  0.15627927  0.57128733  0.72976342    -0.14700
C959        C  0.18414633  0.58942056  0.75099024     0.35900
C960        C  0.19848214  0.62681635  0.72996326    -0.26100
C961        C  0.18538391  0.64696958  0.68839980    -0.15400
C962        C  0.15587218  0.63091082  0.66990392     0.37000
N963        N  0.14043294  0.65204081  0.62951269    -0.89600
H964        H  0.12001560  0.57984136  0.67463873     0.18100
H965        H  0.22057030  0.63936258  0.74546211     0.18100
N966        N  0.19811878  0.56916695  0.79330819    -0.88600
H967        H  0.11720407  0.66219142  0.64004188     0.35400
H968        H  0.13818817  0.62829792  0.60212660     0.40500
H969        H  0.18122925  0.57232031  0.82113281     0.40200
H970        H  0.21862502  0.58636456  0.80432374     0.35100
C971        C  0.20499630  0.40988123  0.77461395    -0.26700
C972        C  0.17095821  0.40644590  0.77279125    -0.14700
C973        C  0.15733227  0.36561455  0.78787530     0.35900
C974        C  0.17703592  0.33159221  0.80763117    -0.26100
C975        C  0.21047747  0.33673234  0.81204330    -0.15400
C976        C  0.22469214  0.37580017  0.79438230     0.37000
N977        N  0.25898976  0.38172840  0.79876777    -0.89600
H978        H  0.21694537  0.43962860  0.76325308     0.18100
H979        H  0.16600338  0.30122328  0.82042072     0.18100
N980        N  0.12315237  0.35929904  0.78521978    -0.88600
H981        H  0.26451838  0.38322594  0.83552237     0.35400
H982        H  0.26582180  0.41224663  0.78394179     0.40500
H983        H  0.11465372  0.35295166  0.81997187     0.40200
H984        H  0.11900071  0.33104156  0.76407664     0.35100
C985        C  0.03090298  0.51723772  0.63744938    -0.26700
C986        C  0.03584267  0.49257132  0.59501711    -0.14700
C987        C  0.06000429  0.45857363  0.59515363     0.35900
C988        C  0.08104927  0.45408356  0.63474889    -0.26100
C989        C  0.07701825  0.47993478  0.67677294    -0.15400
C990        C  0.04983869  0.50946491  0.67882889     0.37000
N991        N  0.04029786  0.53058021  0.72297392    -0.89600
H992        H  0.01224839  0.54293913  0.63883004     0.18100
H993        H  0.10097040  0.43049066  0.63188006     0.18100
N994        N  0.06320237  0.42864952  0.55488754    -0.88600
H995        H  0.01684400  0.52066750  0.73115328     0.35400
H996        H  0.03970567  0.56515694  0.71744482     0.40500
H997        H  0.04198536  0.41026372  0.55288881     0.40200
H998        H  0.08207754  0.40558883  0.56041076     0.35100
C999        C  0.04643276  0.54677001  0.88999413    -0.26700
C1000       C  0.03709985  0.50895858  0.91611447    -0.14700
C1001       C  0.04854152  0.46634477  0.90175721     0.35900
C1002       C  0.06945317  0.46243252  0.86282449    -0.26100
C1003       C  0.08109015  0.50024770  0.83871638    -0.15400
C1004       C  0.06855513  0.54277843  0.85151830     0.37000
N1005       N  0.07904400  0.58203442  0.82710279    -0.89600
H1006       H  0.03750507  0.57953456  0.90065034     0.18100
H1007       H  0.07726639  0.42915284  0.85216954     0.18100
N1008       N  0.03932969  0.42628027  0.92613551    -0.88600
H1009       H  0.08921454  0.60336030  0.85254982     0.35400
H1010       H  0.05867661  0.59815178  0.81249175     0.40500
H1011       H  0.01417501  0.42441591  0.92657353     0.40200
H1012       H  0.04748979  0.42766592  0.96162699     0.35100
C1013       C  0.96872184  0.49717948  0.87340995    -0.26700
C1014       C  0.96438800  0.52626977  0.91272706    -0.14700
C1015       C  0.93966204  0.55943400  0.90983482     0.35900
C1016       C  0.91827107  0.56017277  0.87033406    -0.26100
C1017       C  0.92178594  0.52918997  0.83283223    -0.15400
C1018       C  0.94812215  0.49896296  0.83340299     0.37000
N1019       N  0.95282263  0.46805409  0.79450241    -0.89600
H1020       H  0.98674834  0.47089479  0.87447702     0.18100
H1021       H  0.89794837  0.58345357  0.87019581     0.18100
N1022       N  0.93563414  0.59160914  0.94766280    -0.88600
H1023       H  0.95232150  0.43565799  0.80847818     0.35400
H1024       H  0.97582091  0.47304312  0.78016232     0.40500
H1025       H  0.91232161  0.58862681  0.96162804     0.40200
H1026       H  0.93748343  0.62345908  0.93257472     0.35100
C1027       C  0.92395552  0.54115251  0.64851397    -0.26700
C1028       C  0.92144308  0.50065200  0.67383551    -0.14700
C1029       C  0.94043963  0.46360036  0.65859233     0.35900
C1030       C  0.96060819  0.46736264  0.61805007    -0.26100
C1031       C  0.96260310  0.50771021  0.59259409    -0.15400
C1032       C  0.94437433  0.54512703  0.60837505     0.37000
N1033       N  0.94677869  0.58709752  0.58352671    -0.89600
H1034       H  0.90948892  0.56984927  0.65936156     0.18100
H1035       H  0.97476738  0.43859666  0.60632696     0.18100
N1036       N  0.93997402  0.42237079  0.68468411    -0.88600
H1037       H  0.93171704  0.61128749  0.59942780     0.35400
H1038       H  0.97044433  0.59814983  0.58769974     0.40500
H1039       H  0.96347663  0.41503659  0.69633299     0.40200
H1040       H  0.93301110  0.39715883  0.66092238     0.35100
C1041       C  0.70320545  0.65300191  0.50805623    -0.26700
C1042       C  0.69445433  0.66866149  0.55418462    -0.14700
C1043       C  0.66586648  0.65210214  0.57556055     0.35900
C1044       C  0.64827276  0.61867869  0.55179462    -0.26100
C1045       C  0.65826702  0.60160680  0.50710372    -0.15400
C1046       C  0.68543020  0.61992031  0.48454846     0.37000
N1047       N  0.70358298  0.59768546  0.94218124    -0.89600
H1048       H  0.72440994  0.66577303  0.49023852     0.18100
H1049       H  0.62737202  0.60456228  0.56921407     0.18100
N1050       N  0.65499355  0.66838147  0.62161257    -0.88600
H1051       H  0.72640106  0.58338134  0.94858530     0.35400
H1052       H  0.70629371  0.62359783  0.91734467     0.40500
H1053       H  0.63456507  0.65124572  0.63300566     0.40200
H1054       H  0.64762169  0.70167919  0.61696130     0.35100
C1055       C  0.69599315  0.43314368  0.96916924    -0.26700
C1056       C  0.66197528  0.43632721  0.96566391    -0.14700
C1057       C  0.64528074  0.39747286  0.95127309     0.35900
C1058       C  0.66255819  0.35907766  0.93613806    -0.26100
C1059       C  0.69639251  0.35769220  0.93695825    -0.15400
C1060       C  0.71308149  0.39466842  0.95475555     0.37000
N1061       N  0.74635152  0.39538586  0.44908429    -0.89600
H1062       H  0.70817421  0.46153658  0.47623015     0.18100
H1063       H  0.64945101  0.33034490  0.92335944     0.18100
N1064       N  0.61068333  0.39718752  0.95088383    -0.88600
H1065       H  0.75512424  0.42551409  0.46243724     0.35400
H1066       H  0.75582247  0.42045304  0.93461157     0.40500
H1067       H  0.60315540  0.37137097  0.97339103     0.40200
H1068       H  0.60304551  0.39001257  0.91584271     0.35100
C1069       C  0.34398583  0.34017934  0.95233440    -0.26700
C1070       C  0.31015044  0.33879796  0.95107364    -0.14700
C1071       C  0.29212531  0.37392778  0.97234433     0.35900
C1072       C  0.30819127  0.41147546  0.99011490    -0.26100
C1073       C  0.34190214  0.41619799  0.98475790    -0.15400
C1074       C  0.35994975  0.37788950  0.97022999     0.37000
N1075       N  0.39660958  0.38585199  0.45527576    -0.89600
H1076       H  0.35812068  0.31229586  0.93831557     0.18100
H1077       H  0.29354560  0.43721651  0.00656121     0.18100
N1078       N  0.25740276  0.37258581  0.97352883    -0.88600
H1079       H  0.40457411  0.38019828  0.42001635     0.35400
H1080       H  0.40538632  0.35967616  0.47678427     0.40500
H1081       H  0.24913396  0.37399399  0.93792237     0.40200
H1082       H  0.24774670  0.40078959  0.99087532     0.35100
C1083       C  0.33042874  0.58658567  0.56253886    -0.26700
C1084       C  0.33349616  0.58620498  0.51232300    -0.14700
C1085       C  0.31569794  0.61710596  0.48453105     0.35900
C1086       C  0.29535490  0.64854737  0.50753879    -0.26100
C1087       C  0.29269592  0.64945767  0.55807722    -0.15400
C1088       C  0.31064907  0.61822738  0.58568943     0.37000
N1089       N  0.30802367  0.61743603  0.63716172    -0.89600
H1090       H  0.33814649  0.55958389  0.08391913     0.18100
H1091       H  0.28175066  0.67238772  0.48587256     0.18100
N1092       N  0.31771752  0.61591441  0.43305023    -0.88600
H1093       H  0.32281950  0.61981309  0.14953544     0.35400
H1094       H  0.29991817  0.58594408  0.64742788     0.40500
H1095       H  0.32539162  0.64715653  0.42124412     0.40200
H1096       H  0.29450790  0.61090767  0.41942335     0.35100
C1097       C  0.43135309  0.51465989  0.81434579    -0.26700
C1098       C  0.45573071  0.54647036  0.81958509    -0.14700
C1099       C  0.45690709  0.57058984  0.86365839     0.35900
C1100       C  0.43670815  0.55827809  0.90225839    -0.26100
C1101       C  0.41243489  0.52612924  0.89673392    -0.15400
C1102       C  0.40842532  0.50698913  0.85031651     0.37000
N1103       N  0.38047291  0.48120392  0.83864630    -0.89600
H1104       H  0.42949879  0.49601604  0.78102896     0.18100
H1105       H  0.43981510  0.57503678  0.93641529     0.18100
N1106       N  0.47625083  0.60952660  0.86978445    -0.88600
H1107       H  0.38121116  0.46998689  0.80295789     0.35400
H1108       H  0.36026217  0.50241092  0.84151115     0.40500
H1109       H  0.48697880  0.61917431  0.83751518     0.40200
H1110       H  0.49432376  0.60201945  0.89495730     0.35100
C1111       C  0.44408613  0.57284316  0.62441107    -0.26700
C1112       C  0.46421813  0.53888795  0.64283123    -0.14700
C1113       C  0.46323353  0.49613293  0.62123590     0.35900
C1114       C  0.44301666  0.48880541  0.58138609    -0.26100
C1115       C  0.42268418  0.52286203  0.56267087    -0.15400
C1116       C  0.42381627  0.56564892  0.58462504     0.37000
N1117       N  0.40371616  0.60190494  0.56837124    -0.89600
H1118       H  0.44379396  0.60538646  0.64158410     0.18100
H1119       H  0.44288953  0.45575971  0.56549878     0.18100
N1120       N  0.48098950  0.45882547  0.64064882    -0.88600
H1121       H  0.41869618  0.62787516  0.55768329     0.35400
H1122       H  0.39000338  0.61342025  0.59759782     0.40500
H1123       H  0.47462600  0.45507458  0.67685416     0.40200
H1124       H  0.50558941  0.46540136  0.63871611     0.35100
C1125       C  0.55090446  0.58569079  0.84021848    -0.26700
C1126       C  0.53099210  0.54999279  0.82658070    -0.14700
C1127       C  0.53361752  0.50944109  0.85250398     0.35900
C1128       C  0.55563406  0.50549154  0.89065136    -0.26100
C1129       C  0.57621547  0.54057857  0.90326081    -0.15400
C1130       C  0.57324399  0.58136140  0.87846014     0.37000
N1131       N  0.59409681  0.61747828  0.89010053    -0.89600
H1132       H  0.54984862  0.61660273  0.81991828     0.18100
H1133       H  0.55785798  0.47370473  0.90917964     0.18100
N1134       N  0.51618347  0.47052678  0.83869932    -0.88600
H1135       H  0.57964513  0.64517193  0.89919958     0.35400
H1136       H  0.60721528  0.62550925  0.85920131     0.40500
H1137       H  0.52087544  0.46363345  0.80242557     0.40200
H1138       H  0.49153685  0.47683712  0.84301275     0.35100
C1139       C  0.56283543  0.51030442  0.65122153    -0.26700
C1140       C  0.53797799  0.54274908  0.64852511    -0.14700
C1141       C  0.53485567  0.56785044  0.60539062     0.35900
C1142       C  0.55383713  0.55632670  0.56520120    -0.26100
C1143       C  0.57884318  0.52386326  0.56774487    -0.15400
C1144       C  0.58384416  0.50189464  0.61243983     0.37000
N1145       N  0.61089034  0.47230438  0.61986190    -0.89600
H1146       H  0.56634527  0.49144696  0.68420358     0.18100
H1147       H  0.54918829  0.57430205  0.53210815     0.18100
N1148       N  0.51486724  0.60739095  0.60184169    -0.88600
H1149       H  0.60215958  0.44119185  0.63031993     0.35400
H1150       H  0.62473027  0.48484484  0.64818868     0.40500
H1151       H  0.50419178  0.61581705  0.63469657     0.40200
H1152       H  0.49674773  0.60154348  0.57648440     0.35100
C1153       C  0.64461742  0.12117636  0.94571924    -0.26700
C1154       C  0.66059228  0.08556221  0.96941136    -0.14700
C1155       C  0.69251954  0.09279197  0.98615764     0.35900
C1156       C  0.70940078  0.13036090  0.96980489    -0.26100
C1157       C  0.69454115  0.16228914  0.93971574    -0.15400
C1158       C  0.66114328  0.15866407  0.92999555     0.37000
N1159       N  0.64306975  0.19262300  0.90484751    -0.89600
H1160       H  0.61907934  0.11933813  0.93764511     0.18100
H1161       H  0.73445607  0.13429801  0.98001179     0.18100
N1162       N  0.68071020  0.04219997  0.38856269    -0.88600
H1163       H  0.65083270  0.19399540  0.86910850     0.35400
H1164       H  0.64691501  0.22337429  0.92161784     0.40500
H1165       H  0.70475270  0.03149993  0.38498071     0.40200
H1166       H  0.67215645  0.05134896  0.35443889     0.35100
C1167       C  0.66012212  0.92155442  0.56034696    -0.26700
C1168       C  0.65769532  0.92207676  0.50998116    -0.14700
C1169       C  0.67396719  0.88901084  0.48306583     0.35900
C1170       C  0.69241413  0.85588005  0.50691328    -0.26100
C1171       C  0.69479262  0.85509821  0.55757544    -0.15400
C1172       C  0.67778913  0.88818457  0.58442796     0.37000
N1173       N  0.67910319  0.89019994  0.63596697    -0.89600
H1174       H  0.64918068  0.94837017  0.58120508     0.18100
H1175       H  0.70511522  0.83083811  0.48563102     0.18100
N1176       N  0.67244309  0.88968337  0.43153481    -0.88600
H1177       H  0.70326327  0.89154469  0.64673114     0.35400
H1178       H  0.66866382  0.86147611  0.65006664     0.40500
H1179       H  0.69006442  0.88132760  0.91676288     0.40200
H1180       H  0.69599200  0.89200682  0.41833123     0.35100
C1181       C  0.32386129  0.86119826  0.49109659    -0.26700
C1182       C  0.32695462  0.90327596  0.51342898    -0.14700
C1183       C  0.30870514  0.91200301  0.55585369     0.35900
C1184       C  0.28950330  0.87882568  0.57587275    -0.26100
C1185       C  0.28750889  0.83683801  0.55446092    -0.15400
C1186       C  0.30422726  0.82796178  0.51120739     0.37000
N1187       N  0.30265926  0.78443699  0.48944087    -0.89600
H1188       H  0.33044728  0.85477164  0.94894871     0.18100
H1189       H  0.27639594  0.88575774  0.60893040     0.18100
N1190       N  0.31058080  0.95423721  0.57999247    -0.88600
H1191       H  0.30455420  0.78845840  0.94261751     0.35400
H1192       H  0.27899630  0.78003851  0.47744122     0.40500
H1193       H  0.31881944  0.94857788  0.61511974     0.40200
H1194       H  0.28727910  0.96812534  0.58198160     0.35100
C1195       C  0.31720495  0.07431033  0.99168764    -0.26700
C1196       C  0.34671075  0.06072972  0.97033657    -0.14700
C1197       C  0.36215342  0.09166497  0.93975583     0.35900
C1198       C  0.34611269  0.13164155  0.92665343    -0.26100
C1199       C  0.31492491  0.14216929  0.94348521    -0.15400
C1200       C  0.30108232  0.11393855  0.97816638     0.37000
N1201       N  0.27006056  0.12417426  0.99854671    -0.89600
H1202       H  0.30572696  0.05338236  0.01823152     0.18100
H1203       H  0.35785556  0.15384630  0.90156447     0.18100
N1204       N  0.39372366  0.08307402  0.92083418    -0.88600
H1205       H  0.27264899  0.12597121  0.03597431     0.35400
H1206       H  0.25464432  0.09782273  0.99067055     0.40500
H1207       H  0.40897152  0.10769947  0.93410721     0.40200
H1208       H  0.39269452  0.08712105  0.88344096     0.35100
C1209       C  0.43082044  0.01807854  0.58777713    -0.26700
C1210       C  0.42752580  0.97807641  0.56211577    -0.14700
C1211       C  0.44647301  0.94032518  0.57541376     0.35900
C1212       C  0.46750517  0.94273524  0.61477303    -0.26100
C1213       C  0.46909975  0.98165592  0.64236170    -0.15400
C1214       C  0.45103305  0.01982617  0.62848697     0.37000
N1215       N  0.45218284  0.05967932  0.65693422    -0.89600
H1216       H  0.41590911  0.04690158  0.57846119     0.18100
H1217       H  0.48106201  0.91315269  0.62575387     0.18100
N1218       N  0.44309953  0.89866399  0.55064788    -0.88600
H1219       H  0.45956607  0.08572924  0.63464699     0.35400
H1220       H  0.42877199  0.06718651  0.66888669     0.40500
H1221       H  0.43530210  0.87493271  0.57552290     0.40200
H1222       H  0.46593690  0.88842133  0.53850376     0.35100
C1223       C  0.41082744  0.99185191  0.86189328    -0.26700
C1224       C  0.41480168  0.95729947  0.89519399    -0.14700
C1225       C  0.44003699  0.92550218  0.88839770     0.35900
C1226       C  0.46190842  0.93077000  0.85036501    -0.26100
C1227       C  0.45883891  0.96693933  0.81844406    -0.15400
C1228       C  0.43279685  0.99752299  0.82423673     0.37000
N1229       N  0.42894425  0.03493163  0.79240302    -0.89600
H1230       H  0.39028339  0.01432342  0.86498393     0.18100
H1231       H  0.48108851  0.90615917  0.84528986     0.18100
N1232       N  0.44414388  0.88782242  0.91956331    -0.88600
H1233       H  0.40615413  0.03317891  0.77632737     0.35400
H1234       H  0.42956927  0.06414920  0.81300015     0.40500
H1235       H  0.42334171  0.86858622  0.91785110     0.40200
H1236       H  0.44664849  0.89974990  0.95455496     0.35100
C1237       C  0.55142902  0.93756671  0.84408613    -0.26700
C1238       C  0.53187640  0.97364708  0.82835990    -0.14700
C1239       C  0.53292408  0.01446994  0.85377813     0.35900
C1240       C  0.55384378  0.01884956  0.89294786    -0.26100
C1241       C  0.57475292  0.98377368  0.90702909    -0.15400
C1242       C  0.57282619  0.94235980  0.88330778     0.37000
N1243       N  0.59390909  0.90613960  0.89693639    -0.89600
H1244       H  0.55121944  0.90631687  0.82437186     0.18100
H1245       H  0.55508584  0.05091855  0.91097656     0.18100
N1246       N  0.51469855  0.05305485  0.83859270    -0.88600
H1247       H  0.60782325  0.89713727  0.86693968     0.35400
H1248       H  0.57964388  0.87892793  0.90607008     0.40500
H1249       H  0.52057846  0.06016316  0.80280946     0.40200
H1250       H  0.49017967  0.04585560  0.84049576     0.35100
C1251       C  0.57953435  0.95834732  0.59232159    -0.26700
C1252       C  0.57899434  0.99963744  0.56821926    -0.14700
C1253       C  0.55788803  0.03382392  0.58464991     0.35900
C1254       C  0.53879531  0.02677334  0.62562322    -0.26100
C1255       C  0.54037003  0.98606895  0.65059052    -0.15400
C1256       C  0.56093943  0.95166568  0.63382880     0.37000
N1257       N  0.56271208  0.90974638  0.65863563    -0.89600
H1258       H  0.59464968  0.93113003  0.57937605     0.18100
H1259       H  0.52269177  0.05323123  0.63806866     0.18100
N1260       N  0.55495723  0.07516872  0.55894564    -0.88600
H1261       H  0.55638006  0.88463358  0.63439111     0.35400
H1262       H  0.58671879  0.90406152  0.66903323     0.40500
H1263       H  0.56039248  0.10108103  0.58272568     0.40200
H1264       H  0.53088851  0.07927847  0.54815823     0.35100
loop_ 
_geom_bond_atom_site_label_1 
_geom_bond_atom_site_label_2 
_geom_bond_distance 
_geom_bond_site_symmetry_2 
_ccdc_geom_bond_type 
C1            C2   1.406       .  A
C1            C6   1.401       .  A
C1          C623   1.478       .  S
C2            C3   1.399       .  A
C2          C581   1.478       .  S
C3            C4   1.407       .  A
C3            H8   1.084       .  S
C4            C5   1.421       .  A
C4          C595   1.494       .  S
C5            C6   1.406       .  A
C5          C606   1.486       .  S
C6            H7   1.085       .  S
C9           C15   1.530   1_556  S
C9          C642   1.531       .  S
C9          C645   1.545       .  S
C9          C550   1.531   1_556  S
C10         C641   1.534       .  S
C10          H17   1.086       .  S
C10          C11   1.372   1_565  D
C11          C12   1.553   1_545  S
C11         C564   1.510       .  S
C12          C14   1.544       .  S
C12         C648   1.541       .  S
C12          H18   1.107   1_565  S
C13         C641   1.548       .  S
C13          H19   1.083       .  S
C13          C14   1.370       .  D
C14         C592   1.480       .  S
C15          H20   1.087       .  S
C15          C16   1.356       .  D
C16         C644   1.537   1_554  S
C16         C578   1.478       .  S
C21          C22   1.528       .  S
C21          C27   1.532   1_545  S
C21         C657   1.550       .  S
C21         C522   1.532       .  S
C22          H29   1.087       .  S
C22          C23   1.359   1_545  D
C23         C656   1.545       .  S
C23         C609   1.486       .  S
C24          C28   1.549       .  S
C24          C26   1.543   1_566  S
C24         C655   1.543       .  S
C24          H30   1.109       .  S
C25         C653   1.537   1_554  S
C25          H31   1.085       .  S
C25          C26   1.372       .  D
C26         C620   1.496       .  S
C27          H32   1.087       .  S
C27         C660   1.362       .  D
C28         C659   1.362       .  D
C28         C536   1.484   1_556  S
C33          C34   1.418       .  A
C33          C38   1.413       .  A
C33         C508   1.506       .  S
C34          C35   1.402       .  A
C34         C480   1.494       .  S
C35          C36   1.412       .  A
C35          H40   1.084       .  S
C36          C37   1.426       .  A
C36         C466   1.511       .  S
C37          C38   1.412       .  A
C37         C494   1.494       .  S
C38          H39   1.084       .  S
C41          C42   1.529       .  S
C41          C47   1.543       .  S
C41         C677   1.543       .  S
C41         C441   1.550       .  S
C42          H49   1.083       .  S
C42          C43   1.368       .  D
C43         C676   1.547       .  S
C43         C469   1.505       .  S
C44          C48   1.540       .  S
C44          C46   1.552   1_556  S
C44         C675   1.554       .  S
C44          H50   1.104       .  S
C45         C673   1.539   1_554  S
C45          H51   1.085       .  S
C45          C46   1.378       .  D
C46         C483   1.505       .  S
C47          H52   1.079       .  S
C47         C680   1.356       .  D
C48         C679   1.356       .  D
C48         C452   1.482   1_556  S
C53          C54   1.545       .  S
C53          C59   1.530       .  S
C53         C689   1.543       .  S
C53         C424   1.546       .  S
C54          H61   1.079       .  S
C54         C687   1.362       .  D
C55          C56   1.544       .  S
C55         C686   1.362       .  D
C55         C413   1.493   1_556  S
C56          C58   1.551   1_556  S
C56         C692   1.551       .  S
C56          H62   1.107       .  S
C57         C685   1.541   1_554  S
C57          H63   1.083       .  S
C57          C58   1.378       .  D
C58         C511   1.510       .  S
C59          H64   1.087       .  S
C59          C60   1.362       .  D
C60         C688   1.547       .  S
C60         C497   1.489       .  S
C65          C66   1.422   1_655  A
C65         C702   1.409       .  A
C65         C399   1.486       .  S
C66         C699   1.408       .  A
C66         C354   1.509       .  S
C67          C68   1.404       .  A
C67         C698   1.407       .  A
C67          H72   1.084       .  S
C68          C69   1.417   1_455  A
C68         C368   1.483       .  S
C69          C70   1.410       .  A
C69         C382   1.503       .  S
C70         C697   1.411       .  A
C70          H71   1.084       .  S
C73          C74   1.528       .  S
C73          C79   1.537       .  S
C73          C77   1.546       .  S
C73         C340   1.544       .  S
C74          H81   1.087       .  S
C74          C75   1.364       .  D
C75          C76   1.543       .  S
C75         C371   1.492       .  S
C76          C80   1.538       .  S
C76          C78   1.546       .  S
C76          H82   1.103       .  S
C77          H83   1.084       .  S
C77          C78   1.381       .  D
C78         C357   1.508       .  S
C79          H84   1.080       .  S
C79          C80   1.363       .  D
C80         C326   1.482       .  S
C85          C86   1.548       .  S
C85          C91   1.531       .  S
C85          C89   1.542       .  S
C85         C301   1.543       .  S
C86          H93   1.080       .  S
C86          C87   1.364       .  D
C87          C88   1.540       .  S
C87         C312   1.482       .  S
C88          C92   1.539       .  S
C88          C90   1.540       .  S
C88          H94   1.111       .  S
C89          H95   1.085       .  S
C89          C90   1.369       .  D
C90         C396   1.488       .  S
C91          H96   1.087       .  S
C91          C92   1.360       .  D
C92         C385   1.481       .  S
C97          C98   1.417   1_455  A
C97         C734   1.399       .  A
C97         C242   1.482       .  S
C98         C731   1.413       .  A
C98         C287   1.502       .  S
C99         C100   1.410       .  A
C99         C730   1.413       .  A
C99         H104   1.084       .  S
C100        C101   1.416   1_655  A
C100        C270   1.492       .  S
C101        C102   1.401       .  A
C101        C259   1.487       .  S
C102        C729   1.402       .  A
C102        H103   1.085       .  S
C105        C106   1.544   1_545  S
C105        C111   1.529       .  S
C105        C109   1.547       .  S
C105        C228   1.548       .  S
C106        H113   1.081       .  S
C106        C107   1.367       .  D
C107        C108   1.543       .  S
C107        C214   1.485       .  S
C108        C112   1.548       .  S
C108        C110   1.536   1_565  S
C108        H114   1.106       .  S
C109        H115   1.085       .  S
C109        C110   1.372       .  D
C110        C245   1.491       .  S
C111        H116   1.086       .  S
C111        C112   1.365   1_545  D
C112        C256   1.508       .  S
C117        C118   1.533       .  S
C117        C123   1.544   1_545  S
C117        C121   1.539       .  S
C117        C203   1.545       .  S
C118        H125   1.086       .  S
C118        C119   1.364   1_545  D
C119        C120   1.544       .  S
C119        C273   1.489       .  S
C120        C124   1.541       .  S
C120        C122   1.542   1_565  S
C120        H126   1.107       .  S
C121        H127   1.086       .  S
C121        C122   1.372       .  D
C122        C284   1.496   1_545  S
C123        H128   1.081       .  S
C123        C124   1.364       .  D
C124        C189   1.484       .  S
O129       Ni137   1.917       .  S
O129        C139   1.281       .  A
O130       Ni137   1.917       .  S
O130        C140   1.281       .  A
O131       Ni137   1.917       .  S
O131        C141   1.281       .  A
O132       Ni137   1.923       .  S
O132        C142   1.281       .  A
O133       Ni138   1.907       .  S
O133        C142   1.279       .  A
O134       Ni138   1.913       .  S
O134        C141   1.280       .  A
O135       Ni138   1.924       .  S
O135        C140   1.283       .  A
O136       Ni138   1.925       .  S
O136        C139   1.282       .  A
Ni137      Ni138   2.389       .  S
C139        C427   1.481       .  S
C140        C200   1.483       .  S
C141        C298   1.474       .  S
C142        C525   1.469       .  S
O143       Ni151   1.921       .  S
O143        C153   1.281       .  A
O144       Ni151   1.919       .  S
O144        C154   1.281       .  A
O145       Ni151   1.921       .  S
O145        C155   1.282       .  A
O146       Ni151   1.917       .  S
O146        C156   1.282       .  A
O147       Ni152   1.930       .  S
O147        C156   1.284       .  A
O148       Ni152   1.926       .  S
O148        C155   1.284       .  A
O149       Ni152   1.919       .  S
O149        C154   1.282       .  A
O150       Ni152   1.919       .  S
O150        C153   1.281       .  A
Ni151      Ni152   2.382       .  S
C153        C315   1.476       .  S
C154        C539   1.495       .  S
C155        C410   1.497       .  S
C156        C186   1.496       .  S
O157       Ni165   1.932       .  S
O157        C167   1.283       .  A
O158       Ni165   1.928       .  S
O158        C168   1.282       .  A
O159       Ni165   1.927       .  S
O159        C169   1.284       .  A
O160       Ni165   1.931       .  S
O160        C170   1.284       .  A
O161       Ni166   1.916       .  S
O161        C170   1.281       .  A
O162       Ni166   1.920       .  S
O162        C169   1.282       .  A
O163       Ni166   1.919       .  S
O163        C168   1.282       .  A
O164       Ni166   1.915       .  S
O164        C167   1.281       .  A
Ni165      Ni166   2.385       .  S
C167        C231   1.485       .  S
C168        C438   1.486       .  S
C169        C567   1.496       .  S
C170        C343   1.483       .  S
O171       Ni179   1.910       .  S
O171        C181   1.280       .  A
O172       Ni179   1.907       .  S
O172        C182   1.277       .  A
O173       Ni179   1.911       .  S
O173        C183   1.282       .  A
O174       Ni179   1.913       .  S
O174        C184   1.281       .  A
O175       Ni180   1.915       .  S
O175        C184   1.279       .  A
O176       Ni180   1.922       .  S
O176        C183   1.282       .  A
O177       Ni180   1.938       .  S
O177        C182   1.286       .  A
O178       Ni180   1.935       .  S
O178        C181   1.285       .  A
Ni179      Ni180   2.387       .  S
C181        C455   1.487       .  S
C182        C217   1.481       .  S
C183        C329   1.490       .  S
C184        C553   1.469       .  S
C185        C186   1.410       .  A
C185        C190   1.401       .  A
C185        H192   1.083       .  S
C186        C187   1.416       .  A
C187        C188   1.407       .  A
C187        N194   1.432       .  S
C188        C189   1.402       .  A
C188        H193   1.084       .  S
C189        C190   1.411       .  A
C190        N191   1.433       .  S
N191        H195   1.044       .  S
N191        H196   1.045       .  S
N194        H197   1.046       .  S
N194        H198   1.046       .  S
C199        C200   1.400       .  A
C199        C204   1.403       .  A
C199        H206   1.084       .  S
C200        C201   1.405       .  A
C201        C202   1.404       .  A
C201        N208   1.433       .  S
C202        C203   1.414       .  A
C202        H207   1.077       .  S
C203        C204   1.431       .  A
C204        N205   1.439       .  S
N205        H209   1.040       .  S
N205        H210   1.045       .  S
N208        H211   1.046       .  S
N208        H212   1.046       .  S
C213        C214   1.400       .  A
C213        C218   1.405       .  A
C213        H220   1.084       .  S
C214        C215   1.411       .  A
C215        C216   1.404       .  A
C215        N222   1.433       .  S
C216        C217   1.401       .  A
C216        H221   1.084       .  S
C217        C218   1.419       .  A
C218        N219   1.433       .  S
N219        H223   1.044       .  S
N219        H224   1.046       .  S
N222        H225   1.046       .  S
N222        H226   1.045       .  S
C227        C228   1.416       .  A
C227        C232   1.405       .  A
C227        H234   1.076       .  S
C228        C229   1.429       .  A
C229        C230   1.400       .  A
C229        N236   1.435       .  S
C230        C231   1.400       .  A
C230        H235   1.084       .  S
C231        C232   1.411       .  A
C232        N233   1.433       .  S
N233        H237   1.045       .  S
N233        H238   1.045       .  S
N236        H239   1.041       .  S
N236        H240   1.043       .  S
C241        C242   1.405   1_545  A
C241        C246   1.408       .  A
C241        H248   1.084       .  S
C242        C243   1.415       .  A
C243        C244   1.396       .  A
C243        N250   1.440       .  S
C244        C245   1.405   1_565  A
C244        H249   1.081       .  S
C245        C246   1.409       .  A
C246        N247   1.431       .  S
N247        H251   1.046       .  S
N247        H252   1.045       .  S
N250        H253   1.043       .  S
N250        H254   1.046       .  S
C255        C256   1.412   1_545  A
C255        C260   1.393       .  A
C255        H262   1.081       .  S
C256        C257   1.416       .  A
C257        C258   1.413       .  A
C257        N264   1.430       .  S
C258        C259   1.405       .  A
C258        H263   1.084       .  S
C259        C260   1.412   1_565  A
C260        N261   1.436       .  S
N261        H265   1.044       .  S
N261        H266   1.042       .  S
N264        H267   1.046       .  S
N264        H268   1.046       .  S
C269        C270   1.409       .  A
C269        C274   1.409       .  A
C269        H276   1.084       .  S
C270        C271   1.408   1_565  A
C271        C272   1.398       .  A
C271        N278   1.429       .  S
C272        C273   1.403   1_545  A
C272        H277   1.084       .  S
C273        C274   1.412       .  A
C274        N275   1.431       .  S
N275        H279   1.045       .  S
N275        H280   1.045       .  S
N278        H281   1.046       .  S
N278        H282   1.046       .  S
C283        C284   1.405   1_545  A
C283        C288   1.405       .  A
C283        H290   1.082       .  S
C284        C285   1.411       .  A
C285        C286   1.405       .  A
C285        N292   1.432       .  S
C286        C287   1.407       .  A
C286        H291   1.081       .  S
C287        C288   1.416   1_565  A
C288        N289   1.438       .  S
N289        H293   1.046       .  S
N289        H294   1.045       .  S
N292        H295   1.046       .  S
N292        H296   1.045       .  S
C297        C298   1.397       .  A
C297        C302   1.399       .  A
C297        H304   1.084       .  S
C298        C299   1.406       .  A
C299        C300   1.404       .  A
C299        N306   1.439       .  S
C300        C301   1.415       .  A
C300        H305   1.073       .  S
C301        C302   1.431       .  A
C302        N303   1.435       .  S
N303        H307   1.042       .  S
N303        H308   1.042       .  S
N306        H309   1.045       .  S
N306        H310   1.045       .  S
C311        C312   1.403       .  A
C311        C316   1.407       .  A
C311        H318   1.084       .  S
C312        C313   1.421       .  A
C313        C314   1.400       .  A
C313        N320   1.439       .  S
C314        C315   1.399       .  A
C314        H319   1.084       .  S
C315        C316   1.408       .  A
C316        N317   1.432       .  S
N317        H321   1.046       .  S
N317        H322   1.045       .  S
N320        H323   1.041       .  S
N320        H324   1.045       .  S
C325        C326   1.402       .  A
C325        C330   1.408       .  A
C325        H332   1.084       .  S
C326        C327   1.406       .  A
C327        C328   1.399       .  A
C327        N334   1.433       .  S
C328        C329   1.406       .  A
C328        H333   1.083       .  S
C329        C330   1.417       .  A
C330        N331   1.432       .  S
N331        H335   1.046       .  S
N331        H336   1.045       .  S
N334        H337   1.045       .  S
N334        H338   1.046       .  S
C339        C340   1.416       .  A
C339        C344   1.407       .  A
C339        H346   1.075       .  S
C340        C341   1.418       .  A
C341        C342   1.405       .  A
C341        N348   1.433       .  S
C342        C343   1.401       .  A
C342        H347   1.084       .  S
C343        C344   1.405       .  A
C344        N345   1.433       .  S
N345        H349   1.046       .  S
N345        H350   1.045       .  S
N348        H351   1.046       .  S
N348        H352   1.045       .  S
C353        C354   1.407       .  A
C353        C358   1.409       .  A
C353        H360   1.082       .  S
C354        C355   1.415       .  A
C355        C356   1.403       .  A
C355        N362   1.431       .  S
C356        C357   1.406       .  A
C356        H361   1.081       .  S
C357        C358   1.418       .  A
C358        N359   1.432       .  S
N359        H363   1.046       .  S
N359        H364   1.046       .  S
N362        H365   1.045       .  S
N362        H366   1.046       .  S
C367        C368   1.406       .  A
C367        C372   1.412       .  A
C367        H374   1.083       .  S
C368        C369   1.412       .  A
C369        C370   1.389       .  A
C369        N376   1.434       .  S
C370        C371   1.406       .  A
C370        H375   1.084       .  S
C371        C372   1.410       .  A
C372        N373   1.431       .  S
N373        H377   1.046       .  S
N373        H378   1.045       .  S
N376        H379   1.044       .  S
N376        H380   1.042       .  S
C381        C382   1.405       .  A
C381        C386   1.402       .  A
C381        H388   1.074       .  S
C382        C383   1.415       .  A
C383        C384   1.410       .  A
C383        N390   1.432       .  S
C384        C385   1.401       .  A
C384        H389   1.084       .  S
C385        C386   1.407       .  A
C386        N387   1.438       .  S
N387        H391   1.046       .  S
N387        H392   1.045       .  S
N390        H393   1.046       .  S
N390        H394   1.045       .  S
C395        C396   1.403       .  A
C395        C400   1.402       .  A
C395        H402   1.082       .  S
C396        C397   1.411       .  A
C397        C398   1.406       .  A
C397        N404   1.432       .  S
C398        C399   1.404       .  A
C398        H403   1.084       .  S
C399        C400   1.412       .  A
C400        N401   1.438       .  S
N401        H405   1.046       .  S
N401        H406   1.045       .  S
N404        H407   1.046       .  S
N404        H408   1.046       .  S
C409        C410   1.407       .  A
C409        C414   1.405   1_554  A
C409        H416   1.083   1_554  S
C410        C411   1.418       .  A
C411        C412   1.408       .  A
C411        N418   1.432       .  S
C412        C413   1.402       .  A
C412        H417   1.084       .  S
C413        C414   1.412   1_554  A
C414       N1047   1.433       .  S
N415       C1046   1.432       .  S
N415        H419   1.045       .  S
N415        H420   1.046       .  S
N418        H421   1.045       .  S
N418        H422   1.046       .  S
C423        C424   1.414       .  A
C423        C428   1.405       .  A
C423       H1062   1.073       .  S
C424        C425   1.419       .  A
C425        C426   1.408       .  A
C425        N432   1.433       .  S
C426        C427   1.401       .  A
C426        H431   1.084       .  S
C427        C428   1.408       .  A
C428       N1061   1.440       .  S
N429       C1060   1.434       .  S
N429        H433   1.045       .  S
N429       H1066   1.046       .  S
H430       C1055   1.074       .  S
N432        H435   1.046       .  S
N432        H436   1.045       .  S
H434       N1061   1.046       .  S
C437        C438   1.403       .  A
C437        C442   1.411       .  A
C437        H444   1.084       .  S
C438        C439   1.409       .  A
C439        C440   1.405       .  A
C439        N446   1.440       .  S
C440        C441   1.415       .  A
C440        H445   1.072       .  S
C441        C442   1.419       .  A
C442       N1075   1.433       .  S
N443       C1074   1.433       .  S
N443        H447   1.045       .  S
N443        H448   1.046       .  S
N446        H449   1.046       .  S
N446        H450   1.045       .  S
C451        C452   1.400       .  A
C451        C456   1.400       .  A
C451       H1090   1.084       .  S
C452        C453   1.406   1_554  A
C453        C454   1.411   1_556  A
C453        N460   1.431       .  S
C454        C455   1.408       .  A
C454        H459   1.084   1_554  S
C455        C456   1.412       .  A
C456        N457   1.433       .  S
N457        H462   1.046       .  S
N457       H1093   1.045       .  S
H458       C1083   1.084       .  S
N460        H463   1.045       .  S
N460        H464   1.046       .  S
H461       N1089   1.046       .  S
C465        C466   1.409       .  A
C465        C470   1.397       .  A
C465        H472   1.082       .  S
C466        C467   1.423       .  A
C467        C468   1.412       .  A
C467        N474   1.435       .  S
C468        C469   1.409       .  A
C468        H473   1.082       .  S
C469        C470   1.414       .  A
C470        N471   1.439       .  S
N471        H475   1.046       .  S
N471        H476   1.046       .  S
N474        H477   1.043       .  S
N474        H478   1.045       .  S
C479        C480   1.402       .  A
C479        C484   1.404       .  A
C479        H486   1.084       .  S
C480        C481   1.415       .  A
C481        C482   1.404       .  A
C481        N488   1.432       .  S
C482        C483   1.409       .  A
C482        H487   1.083       .  S
C483        C484   1.416       .  A
C484        N485   1.430       .  S
N485        H489   1.046       .  S
N485        H490   1.046       .  S
N488        H491   1.046       .  S
N488        H492   1.042       .  S
C493        C494   1.410       .  A
C493        C498   1.409       .  A
C493        H500   1.084       .  S
C494        C495   1.414       .  A
C495        C496   1.401       .  A
C495        N502   1.432       .  S
C496        C497   1.406       .  A
C496        H501   1.084       .  S
C497        C498   1.405       .  A
C498        N499   1.431       .  S
N499        H503   1.045       .  S
N499        H504   1.045       .  S
N502        H505   1.045       .  S
N502        H506   1.043       .  S
C507        C508   1.407       .  A
C507        C512   1.408       .  A
C507        H514   1.083       .  S
C508        C509   1.420       .  A
C509        C510   1.404       .  A
C509        N516   1.436       .  S
C510        C511   1.408       .  A
C510        H515   1.081       .  S
C511        C512   1.419       .  A
C512        N513   1.437       .  S
N513        H517   1.046       .  S
N513        H518   1.046       .  S
N516        H519   1.043       .  S
N516        H520   1.045       .  S
C521        C522   1.413       .  A
C521        C526   1.404       .  A
C521        H528   1.077       .  S
C522        C523   1.419       .  A
C523        C524   1.397       .  A
C523       N1162   1.434       .  S
C524        C525   1.396       .  A
C524        H529   1.085       .  S
C525        C526   1.409       .  A
C526        N527   1.432       .  S
N527        H531   1.046       .  S
N527        H532   1.045       .  S
N530       C1155   1.436   1_554  S
N530        H533   1.046       .  S
N530        H534   1.046       .  S
C535        C536   1.399       .  A
C535        C540   1.398       .  A
C535        H542   1.078       .  S
C536        C537   1.406   1_554  A
C537        C538   1.406   1_556  A
C537        N544   1.432       .  S
C538        C539   1.411       .  A
C538        H543   1.083   1_554  S
C539        C540   1.421       .  A
C540        N541   1.432       .  S
N541        H545   1.045       .  S
N541        H546   1.045       .  S
N544        H548   1.046       .  S
N544       H1179   1.045       .  S
H547       N1176   1.046       .  S
C549        C550   1.410   1_556  A
C549        C554   1.411   1_556  A
C549       H1188   1.078       .  S
C550        C551   1.420       .  A
C551        C552   1.395       .  A
C551        N558   1.434       .  S
C552        C553   1.394       .  A
C552        H557   1.085       .  S
C553        C554   1.410       .  A
C554        N555   1.438   1_554  S
N555        H560   1.045       .  S
N555       H1191   1.045       .  S
H556       C1181   1.078       .  S
N558        H561   1.046       .  S
N558        H562   1.045       .  S
H559       N1187   1.046       .  S
C563        C564   1.409       .  A
C563        C568   1.404       .  A
C563        H570   1.083       .  S
C564        C565   1.416       .  A
C565        C566   1.410       .  A
C565        N572   1.429       .  S
C566        C567   1.406       .  A
C566        H571   1.084       .  S
C567        C568   1.412       .  A
C568        N569   1.432       .  S
N569        H573   1.046       .  S
N569        H574   1.045       .  S
N572        H575   1.045       .  S
N572        H576   1.044       .  S
C577        C578   1.402   1_545  A
C577        C582   1.409       .  A
C577        H584   1.084       .  S
C578        C579   1.409       .  A
C579        C580   1.396       .  A
C579        N586   1.430       .  S
C580        C581   1.396       .  A
C580        H585   1.083       .  S
C581        C582   1.412   1_565  A
C582        N583   1.437       .  S
N583        H587   1.045       .  S
N583        H588   1.046       .  S
N586        H589   1.045       .  S
N586        H590   1.046       .  S
C591        C592   1.396       .  A
C591        C596   1.401       .  A
C591        H598   1.082   1_565  S
C592        C593   1.411       .  A
C593        C594   1.402       .  A
C593        N600   1.429       .  S
C594        C595   1.406       .  A
C594        H599   1.083       .  S
C595        C596   1.415       .  A
C596        N597   1.433   1_565  S
N597        H601   1.046       .  S
N597        H602   1.045       .  S
N600        H603   1.045       .  S
N600        H604   1.043       .  S
C605        C606   1.408       .  A
C605        C610   1.411       .  A
C605        H612   1.084       .  S
C606        C607   1.411   1_565  A
C607        C608   1.397       .  A
C607        N614   1.433       .  S
C608        C609   1.406   1_545  A
C608        H613   1.084       .  S
C609        C610   1.409       .  A
C610        N611   1.437       .  S
N611        H615   1.046       .  S
N611        H616   1.046       .  S
N614        H617   1.046       .  S
N614        H618   1.043       .  S
C619        C620   1.407   1_565  A
C619        C624   1.401       .  A
C619        H626   1.078       .  S
C620        C621   1.416       .  A
C621        C622   1.405       .  A
C621        N628   1.432       .  S
C622        C623   1.400   1_545  A
C622        H627   1.083       .  S
C623        C624   1.403       .  A
C624        N625   1.432       .  S
N625        H629   1.045       .  S
N625        H630   1.046       .  S
N628        H631   1.046       .  S
N628        H632   1.045       .  S
C633        C634   1.407       .  A
C633        C638   1.405       .  A
C633       C1255   1.481       .  S
C634        C635   1.396       .  A
C634       C1213   1.478       .  S
C635        C636   1.403       .  A
C635        H640   1.085       .  S
C636        C637   1.419       .  A
C636       C1227   1.486       .  S
C637        C638   1.408       .  A
C637       C1238   1.488       .  S
C638        H639   1.084       .  S
C641        C647   1.525       .  S
C641       C1182   1.534       .  S
C642        H649   1.085       .  S
C642        C643   1.370   1_565  D
C643        C644   1.552   1_545  S
C643       C1196   1.510       .  S
C644        C646   1.548       .  S
C644        H650   1.106   1_565  S
C645        H651   1.082       .  S
C645        C646   1.370       .  D
C646       C1224   1.481       .  S
C647        H652   1.088       .  S
C647        C648   1.355       .  D
C648       C1210   1.481       .  S
C653        C654   1.537       .  S
C653        C659   1.536   1_545  S
C653       C1154   1.536       .  S
C654        H661   1.086       .  S
C654        C655   1.362   1_545  D
C655       C1241   1.489       .  S
C656        C660   1.545       .  S
C656        C658   1.539   1_565  S
C656        H662   1.111       .  S
C657        H663   1.081       .  S
C657        C658   1.373       .  D
C658       C1252   1.488   1_545  S
C659        H664   1.082       .  S
C660       C1168   1.480       .  S
C665        C666   1.418       .  A
C665        C670   1.412       .  A
C665       C1140   1.502       .  S
C666        C667   1.404       .  A
C666       C1112   1.495       .  S
C667        C668   1.414       .  A
C667        H672   1.084       .  S
C668        C669   1.426       .  A
C668       C1098   1.510       .  S
C669        C670   1.412       .  A
C669       C1126   1.496       .  S
C670        H671   1.084       .  S
C673        C674   1.530       .  S
C673        C679   1.542       .  S
C673       C1073   1.547       .  S
C674        H681   1.080       .  S
C674        C675   1.368       .  D
C675       C1101   1.514       .  S
C676        C680   1.535       .  S
C676        C678   1.552       .  S
C676        H682   1.105       .  S
C677        H683   1.085       .  S
C677        C678   1.381       .  D
C678       C1115   1.510       .  S
C679        H684   1.080       .  S
C680       C1084   1.474       .  S
C685        C686   1.541       .  S
C685        C691   1.529       .  S
C685       C1056   1.543       .  S
C686        H693   1.078       .  S
C687        C688   1.538       .  S
C687       C1045   1.488       .  S
C688        C690   1.550       .  S
C688        H694   1.107       .  S
C689        H695   1.082       .  S
C689        C690   1.379       .  D
C690       C1143   1.511       .  S
C691        H696   1.087       .  S
C691        C692   1.362       .  D
C692       C1129   1.494       .  S
C697        C698   1.420   1_655  A
C697       C1031   1.489       .  S
C698        C986   1.505       .  S
C699        C700   1.405   1_554  A
C699        H704   1.084       .  S
C700        C701   1.415   1_455  A
C700       C1000   1.480       .  S
C701        C702   1.407   1_556  A
C701       C1014   1.501       .  S
C702        H703   1.084       .  S
C705        C706   1.528       .  S
C705        C711   1.535       .  S
C705        C709   1.547       .  S
C705        C972   1.544       .  S
C706        H713   1.087       .  S
C706        C707   1.365       .  D
C707        C708   1.542       .  S
C707       C1003   1.494       .  S
C708        C712   1.538       .  S
C708        C710   1.547       .  S
C708        H714   1.100       .  S
C709        H715   1.084       .  S
C709        C710   1.383       .  D
C710        C989   1.513       .  S
C711        H716   1.080       .  S
C711        C712   1.360       .  D
C712        C958   1.483       .  S
C717        C718   1.547       .  S
C717        C723   1.531       .  S
C717        C721   1.545       .  S
C717        C933   1.545       .  S
C718        H725   1.081       .  S
C718        C719   1.365       .  D
C719        C720   1.542       .  S
C719        C944   1.482       .  S
C720        C724   1.537       .  S
C720        C722   1.542       .  S
C720        H726   1.110       .  S
C721        H727   1.084       .  S
C721        C722   1.373       .  D
C722       C1028   1.498       .  S
C723        H728   1.087       .  S
C723        C724   1.358       .  D
C724       C1017   1.478       .  S
C729        C730   1.418   1_455  A
C729        C874   1.483       .  S
C730        C919   1.504       .  S
C731        C732   1.411   1_554  A
C731        H736   1.084       .  S
C732        C733   1.418   1_655  A
C732        C902   1.497       .  S
C733        C734   1.400   1_556  A
C733        C891   1.484       .  S
C734        H735   1.085       .  S
C737        C738   1.537   1_545  S
C737        C743   1.529       .  S
C737        C741   1.548       .  S
C737        C860   1.542       .  S
C738        H745   1.082       .  S
C738        C739   1.362       .  D
C739        C740   1.542       .  S
C739        C846   1.479       .  S
C740        C744   1.546       .  S
C740        C742   1.534   1_565  S
C740        H746   1.106       .  S
C741        H747   1.084       .  S
C741        C742   1.371       .  D
C742        C877   1.487       .  S
C743        H748   1.085       .  S
C743        C744   1.367   1_545  D
C744        C888   1.505       .  S
C749        C750   1.532       .  S
C749        C755   1.545   1_545  S
C749        C753   1.542       .  S
C749        C835   1.549       .  S
C750        H757   1.086       .  S
C750        C751   1.363   1_545  D
C751        C752   1.541       .  S
C751        C905   1.484       .  S
C752        C756   1.539       .  S
C752        C754   1.543   1_565  S
C752        H758   1.108       .  S
C753        H759   1.084       .  S
C753        C754   1.374       .  D
C754        C916   1.499       .  S
C755        H760   1.079       .  S
C755        C756   1.363       .  D
C756        C821   1.483       .  S
O761       Ni769   1.917       .  S
O761        C771   1.281       .  A
O762       Ni769   1.915       .  S
O762        C772   1.280       .  A
O763       Ni769   1.922       .  S
O763        C773   1.282       .  A
O764       Ni769   1.927       .  S
O764        C774   1.284       .  A
O765       Ni770   1.904       .  S
O765        C774   1.278       .  A
O766       Ni770   1.913       .  S
O766        C773   1.280       .  A
O767       Ni770   1.922       .  S
O767        C772   1.283       .  A
O768       Ni770   1.920       .  S
O768        C771   1.281       .  A
Ni769      Ni770   2.388       .  S
C771       C1059   1.477       .  S
C772        C832   1.479       .  S
C773        C930   1.477       .  S
C774       C1157   1.482       .  S
O775       Ni783   1.920       .  S
O775        C785   1.281       .  A
O776       Ni783   1.920       .  S
O776        C786   1.281       .  A
O777       Ni783   1.922       .  S
O777        C787   1.282       .  A
O778       Ni783   1.917       .  S
O778        C788   1.282       .  A
O779       Ni784   1.927       .  S
O779        C788   1.283       .  A
O780       Ni784   1.922       .  S
O780        C787   1.283       .  A
O781       Ni784   1.920       .  S
O781        C786   1.282       .  A
O782       Ni784   1.920       .  S
O782        C785   1.282       .  A
Ni783      Ni784   2.383       .  S
C785        C947   1.480       .  S
C786       C1171   1.487       .  S
C787       C1042   1.498       .  S
C788        C818   1.495       .  S
O789       Ni797   1.925       .  S
O789        C799   1.282       .  A
O790       Ni797   1.924       .  S
O790        C800   1.282       .  A
O791       Ni797   1.915       .  S
O791        C801   1.281       .  A
O792       Ni797   1.921       .  S
O792        C802   1.282       .  A
O793       Ni798   1.919       .  S
O793        C802   1.281       .  A
O794       Ni798   1.922       .  S
O794        C801   1.283       .  A
O795       Ni798   1.915       .  S
O795        C800   1.281       .  A
O796       Ni798   1.906       .  S
O796        C799   1.279       .  A
Ni797      Ni798   2.388       .  S
C799        C863   1.471       .  S
C800       C1070   1.481       .  S
C801       C1199   1.490       .  S
C802        C975   1.479       .  S
O803       Ni811   1.909       .  S
O803        C813   1.280       .  A
O804       Ni811   1.907       .  S
O804        C814   1.278       .  A
O805       Ni811   1.917       .  S
O805        C815   1.283       .  A
O806       Ni811   1.921       .  S
O806        C816   1.282       .  A
O807       Ni812   1.912       .  S
O807        C816   1.278       .  A
O808       Ni812   1.917       .  S
O808        C815   1.281       .  A
O809       Ni812   1.923       .  S
O809        C814   1.283       .  A
O810       Ni812   1.921       .  S
O810        C813   1.282       .  A
Ni811      Ni812   2.389       .  S
C813       C1087   1.478       .  S
C814        C849   1.470       .  S
C815        C961   1.489       .  S
C816       C1185   1.470       .  S
C817        C818   1.409       .  A
C817        C822   1.399       .  A
C817        H824   1.083       .  S
C818        C819   1.417       .  A
C819        C820   1.408       .  A
C819        N826   1.432       .  S
C820        C821   1.401       .  A
C820        H825   1.084       .  S
C821        C822   1.411       .  A
C822        N823   1.433       .  S
N823        H827   1.044       .  S
N823        H828   1.045       .  S
N826        H829   1.046       .  S
N826        H830   1.046       .  S
C831        C832   1.399       .  A
C831        C836   1.402       .  A
C831        H838   1.084       .  S
C832        C833   1.406       .  A
C833        C834   1.405       .  A
C833        N840   1.439       .  S
C834        C835   1.416       .  A
C834        H839   1.072       .  S
C835        C836   1.432       .  A
C836        N837   1.436       .  S
N837        H841   1.043       .  S
N837        H842   1.040       .  S
N840        H843   1.046       .  S
N840        H844   1.045       .  S
C845        C846   1.400       .  A
C845        C850   1.402       .  A
C845        H852   1.084       .  S
C846        C847   1.415       .  A
C847        C848   1.401       .  A
C847        N854   1.439       .  S
C848        C849   1.398       .  A
C848        H853   1.084       .  S
C849        C850   1.415       .  A
C850        N851   1.433       .  S
N851        H855   1.045       .  S
N851        H856   1.045       .  S
N854        H857   1.043       .  S
N854        H858   1.045       .  S
C859        C860   1.418       .  A
C859        C864   1.400       .  A
C859        H866   1.076       .  S
C860        C861   1.429       .  A
C861        C862   1.398       .  A
C861        N868   1.434       .  S
C862        C863   1.397       .  A
C862        H867   1.085       .  S
C863        C864   1.405       .  A
C864        N865   1.434       .  S
N865        H869   1.046       .  S
N865        H870   1.045       .  S
N868        H871   1.043       .  S
N868        H872   1.042       .  S
C873        C874   1.405   1_545  A
C873        C878   1.408       .  A
C873        H880   1.084       .  S
C874        C875   1.416       .  A
C875        C876   1.396       .  A
C875        N882   1.440       .  S
C876        C877   1.403   1_565  A
C876        H881   1.083       .  S
C877        C878   1.408       .  A
C878        N879   1.432       .  S
N879        H883   1.046       .  S
N879        H884   1.045       .  S
N882        H885   1.043       .  S
N882        H886   1.046       .  S
C887        C888   1.410   1_545  A
C887        C892   1.392       .  A
C887        H894   1.081       .  S
C888        C889   1.416       .  A
C889        C890   1.411       .  A
C889        N896   1.430       .  S
C890        C891   1.403       .  A
C890        H895   1.084       .  S
C891        C892   1.413   1_565  A
C892        N893   1.436       .  S
N893        H897   1.043       .  S
N893        H898   1.043       .  S
N896        H899   1.046       .  S
N896        H900   1.046       .  S
C901        C902   1.411       .  A
C901        C906   1.408       .  A
C901        H908   1.084       .  S
C902        C903   1.411   1_565  A
C903        C904   1.399       .  A
C903        N910   1.428       .  S
C904        C905   1.400   1_545  A
C904        H909   1.084       .  S
C905        C906   1.410       .  A
C906        N907   1.431       .  S
N907        H911   1.045       .  S
N907        H912   1.045       .  S
N910        H913   1.046       .  S
N910        H914   1.046   1_655  S
C915        C916   1.406       .  A
C915        C920   1.407       .  A
C915        H922   1.082       .  S
C916        C917   1.411   1_545  A
C917        C918   1.406       .  A
C917        N924   1.432       .  S
C918        C919   1.407       .  A
C918        H923   1.081       .  S
C919        C920   1.417   1_565  A
C920        N921   1.438       .  S
N921        H925   1.046       .  S
N921        H926   1.045       .  S
N924        H927   1.046       .  S
N924        H928   1.045       .  S
C929        C930   1.397       .  A
C929        C934   1.401       .  A
C929        H936   1.084       .  S
C930        C931   1.404       .  A
C931        C932   1.403       .  A
C931        N938   1.433       .  S
C932        C933   1.414       .  A
C932        H937   1.075       .  S
C933        C934   1.433       .  A
C934        N935   1.435       .  S
N935        H939   1.041       .  S
N935        H940   1.042       .  S
N938        H941   1.046       .  S
N938        H942   1.045       .  S
C943        C944   1.403       .  A
C943        C948   1.410       .  A
C943        H950   1.084       .  S
C944        C945   1.419       .  A
C945        C946   1.399       .  A
C945        N952   1.438       .  S
C946        C947   1.400       .  A
C946        H951   1.084       .  S
C947        C948   1.413       .  A
C948        N949   1.438       .  S
N949        H953   1.046       .  S
N949        H954   1.046       .  S
N952        H955   1.041       .  S
N952        H956   1.045       .  S
C957        C958   1.400       .  A
C957        C962   1.404       .  A
C957        H964   1.084       .  S
C958        C959   1.412       .  A
C959        C960   1.403       .  A
C959        N966   1.438       .  S
C960        C961   1.406       .  A
C960        H965   1.083       .  S
C961        C962   1.416       .  A
C962        N963   1.432       .  S
N963        H967   1.046       .  S
N963        H968   1.045       .  S
N966        H969   1.045       .  S
N966        H970   1.046       .  S
C971        C972   1.416       .  A
C971        C976   1.407       .  A
C971        H978   1.073       .  S
C972        C973   1.418       .  A
C973        C974   1.406       .  A
C973        N980   1.433       .  S
C974        C975   1.401       .  A
C974        H979   1.084       .  S
C975        C976   1.406       .  A
C976        N977   1.439       .  S
N977        H981   1.046       .  S
N977        H982   1.045       .  S
N980        H983   1.045       .  S
N980        H984   1.046       .  S
C985        C986   1.403       .  A
C985        C990   1.407       .  A
C985        H992   1.082       .  S
C986        C987   1.415       .  A
C987        C988   1.407       .  A
C987        N994   1.437       .  S
C988        C989   1.408       .  A
C988        H993   1.080       .  S
C989        C990   1.421       .  A
C990        N991   1.431       .  S
N991        H995   1.045       .  S
N991        H996   1.046       .  S
N994        H997   1.046       .  S
N994        H998   1.045       .  S
C999       C1000   1.404       .  A
C999       C1004   1.411       .  A
C999       H1006   1.083       .  S
C1000      C1001   1.411       .  A
C1001      C1002   1.389       .  A
C1001      N1008   1.434       .  S
C1002      C1003   1.407       .  A
C1002      H1007   1.083       .  S
C1003      C1004   1.412       .  A
C1004      N1005   1.430       .  S
N1005      H1009   1.045       .  S
N1005      H1010   1.046       .  S
N1008      H1011   1.044       .  S
N1008      H1012   1.042       .  S
C1013      C1014   1.405       .  A
C1013      C1018   1.400       .  A
C1013      H1020   1.076       .  S
C1014      C1015   1.417       .  A
C1015      C1016   1.409       .  A
C1015      N1022   1.432       .  S
C1016      C1017   1.400       .  A
C1016      H1021   1.084       .  S
C1017      C1018   1.406       .  A
C1018      N1019   1.433       .  S
N1019      H1023   1.045       .  S
N1019      H1024   1.045       .  S
N1022      H1025   1.046       .  S
N1022      H1026   1.045       .  S
C1027      C1028   1.407       .  A
C1027      C1032   1.405       .  A
C1027      H1034   1.082       .  S
C1028      C1029   1.414       .  A
C1029      C1030   1.407       .  A
C1029      N1036   1.431       .  S
C1030      C1031   1.403       .  A
C1030      H1035   1.084       .  S
C1031      C1032   1.410       .  A
C1032      N1033   1.438       .  S
N1033      H1037   1.046       .  S
N1033      H1038   1.046       .  S
N1036      H1039   1.045       .  S
N1036      H1040   1.046       .  S
C1041      C1042   1.409       .  A
C1041      C1046   1.404       .  A
C1041      H1048   1.083       .  S
C1042      C1043   1.421       .  A
C1043      C1044   1.410       .  A
C1043      N1050   1.438       .  S
C1044      C1045   1.401       .  A
C1044      H1049   1.084       .  S
C1045      C1046   1.407       .  A
N1047      H1051   1.046       .  S
N1047      H1052   1.045       .  S
N1050      H1053   1.046       .  S
N1050      H1054   1.046       .  S
C1055      C1056   1.414       .  A
C1055      C1060   1.400       .  A
C1056      C1057   1.420       .  A
C1057      C1058   1.408       .  A
C1057      N1064   1.433       .  S
C1058      C1059   1.401       .  A
C1058      H1063   1.084       .  S
C1059      C1060   1.404       .  A
N1061      H1065   1.045       .  S
N1064      H1067   1.045       .  S
N1064      H1068   1.046       .  S
C1069      C1070   1.403       .  A
C1069      C1074   1.408       .  A
C1069      H1076   1.084       .  S
C1070      C1071   1.409       .  A
C1071      C1072   1.404       .  A
C1071      N1078   1.439       .  S
C1072      C1073   1.413       .  A
C1072      H1077   1.074   1_556  S
C1073      C1074   1.417       .  A
N1075      H1079   1.046       .  S
N1075      H1080   1.045       .  S
N1078      H1081   1.046       .  S
N1078      H1082   1.046       .  S
C1083      C1084   1.399       .  A
C1083      C1088   1.398       .  A
C1084      C1085   1.404       .  A
C1085      C1086   1.406       .  A
C1085      N1092   1.432       .  S
C1086      C1087   1.407       .  A
C1086      H1091   1.084       .  S
C1087      C1088   1.411       .  A
C1088      N1089   1.433       .  S
N1089      H1094   1.046       .  S
N1092      H1095   1.045       .  S
N1092      H1096   1.046       .  S
C1097      C1098   1.406       .  A
C1097      C1102   1.400       .  A
C1097      H1104   1.083       .  S
C1098      C1099   1.421       .  A
C1099      C1100   1.412       .  A
C1099      N1106   1.435       .  S
C1100      C1101   1.411       .  A
C1100      H1105   1.081       .  S
C1101      C1102   1.420       .  A
C1102      N1103   1.438       .  S
N1103      H1107   1.046       .  S
N1103      H1108   1.045       .  S
N1106      H1109   1.043       .  S
N1106      H1110   1.045       .  S
C1111      C1112   1.400       .  A
C1111      C1116   1.405       .  A
C1111      H1118   1.084       .  S
C1112      C1113   1.414       .  A
C1113      C1114   1.406       .  A
C1113      N1120   1.432       .  S
C1114      C1115   1.410       .  A
C1114      H1119   1.083       .  S
C1115      C1116   1.419       .  A
C1116      N1117   1.430       .  S
N1117      H1121   1.046       .  S
N1117      H1122   1.046       .  S
N1120      H1123   1.045       .  S
N1120      H1124   1.042       .  S
C1125      C1126   1.412       .  A
C1125      C1130   1.412       .  A
C1125      H1132   1.084       .  S
C1126      C1127   1.414       .  A
C1127      C1128   1.400       .  A
C1127      N1134   1.432       .  S
C1128      C1129   1.407       .  A
C1128      H1133   1.084       .  S
C1129      C1130   1.405       .  A
C1130      N1131   1.431       .  S
N1131      H1135   1.045       .  S
N1131      H1136   1.046       .  S
N1134      H1137   1.045       .  S
N1134      H1138   1.042       .  S
C1139      C1140   1.405       .  A
C1139      C1144   1.404       .  A
C1139      H1146   1.084       .  S
C1140      C1141   1.418       .  A
C1141      C1142   1.405       .  A
C1141      N1148   1.436       .  S
C1142      C1143   1.410       .  A
C1142      H1147   1.080       .  S
C1143      C1144   1.417       .  A
C1144      N1145   1.431       .  S
N1145      H1149   1.046       .  S
N1145      H1150   1.046       .  S
N1148      H1151   1.043       .  S
N1148      H1152   1.045       .  S
C1153      C1154   1.408       .  A
C1153      C1158   1.394       .  A
C1153      H1160   1.083       .  S
C1154      C1155   1.421       .  A
C1155      C1156   1.409       .  A
C1156      C1157   1.403       .  A
C1156      H1161   1.084       .  S
C1157      C1158   1.415       .  A
C1158      N1159   1.433       .  S
N1159      H1163   1.044       .  S
N1159      H1164   1.046       .  S
N1162      H1165   1.046       .  S
N1162      H1166   1.046       .  S
C1167      C1168   1.401       .  A
C1167      C1172   1.398       .  A
C1167      H1174   1.083       .  S
C1168      C1169   1.403       .  A
C1169      C1170   1.407       .  A
C1169      N1176   1.431       .  S
C1170      C1171   1.409       .  A
C1170      H1175   1.084       .  S
C1171      C1172   1.417       .  A
C1172      N1173   1.432       .  S
N1173      H1177   1.045       .  S
N1173      H1178   1.045       .  S
N1176      H1180   1.045       .  S
C1181      C1182   1.411       .  A
C1181      C1186   1.411       .  A
C1182      C1183   1.421       .  A
C1183      C1184   1.398       .  A
C1183      N1190   1.434       .  S
C1184      C1185   1.394       .  A
C1184      H1189   1.085       .  S
C1185      C1186   1.409       .  A
C1186      N1187   1.438       .  S
N1187      H1192   1.045       .  S
N1190      H1193   1.045       .  S
N1190      H1194   1.046       .  S
C1195      C1196   1.412       .  A
C1195      C1200   1.403       .  A
C1195      H1202   1.082   1_556  S
C1196      C1197   1.417       .  A
C1197      C1198   1.407       .  A
C1197      N1204   1.429       .  S
C1198      C1199   1.405       .  A
C1198      H1203   1.084       .  S
C1199      C1200   1.409       .  A
C1200      N1201   1.432       .  S
N1201      H1205   1.045   1_556  S
N1201      H1206   1.046       .  S
N1204      H1207   1.045       .  S
N1204      H1208   1.046       .  S
C1209      C1210   1.401   1_545  A
C1209      C1214   1.407       .  A
C1209      H1216   1.084       .  S
C1210      C1211   1.414       .  A
C1211      C1212   1.399       .  A
C1211      N1218   1.432       .  S
C1212      C1213   1.396       .  A
C1212      H1217   1.084       .  S
C1213      C1214   1.409   1_565  A
C1214      N1215   1.432       .  S
N1215      H1219   1.045       .  S
N1215      H1220   1.046       .  S
N1218      H1221   1.046       .  S
N1218      H1222   1.045       .  S
C1223      C1224   1.395       .  A
C1223      C1228   1.398       .  A
C1223      H1230   1.079   1_565  S
C1224      C1225   1.414       .  A
C1225      C1226   1.402       .  A
C1225      N1232   1.429       .  S
C1226      C1227   1.403       .  A
C1226      H1231   1.084       .  S
C1227      C1228   1.412       .  A
C1228      N1229   1.433   1_565  S
N1229      H1233   1.046       .  S
N1229      H1234   1.045       .  S
N1232      H1235   1.045       .  S
N1232      H1236   1.040       .  S
C1237      C1238   1.408       .  A
C1237      C1242   1.412       .  A
C1237      H1244   1.084       .  S
C1238      C1239   1.412   1_565  A
C1239      C1240   1.397       .  A
C1239      N1246   1.432       .  S
C1240      C1241   1.405   1_545  A
C1240      H1245   1.084       .  S
C1241      C1242   1.407       .  A
C1242      N1243   1.431       .  S
N1243      H1247   1.045       .  S
N1243      H1248   1.045       .  S
N1246      H1249   1.045       .  S
N1246      H1250   1.043       .  S
C1251      C1252   1.405       .  A
C1251      C1256   1.402       .  A
C1251      H1258   1.081       .  S
C1252      C1253   1.411   1_565  A
C1253      C1254   1.403       .  A
C1253      N1260   1.432       .  S
C1254      C1255   1.402   1_545  A
C1254      H1259   1.083       .  S
C1255      C1256   1.405       .  A
C1256      N1257   1.432       .  S
N1257      H1261   1.045       .  S
N1257      H1262   1.046       .  S
N1260      H1263   1.045       .  S
N1260      H1264   1.046       .  S
