geometry optimzed in LAMMPS
_audit_creation_date              2020-11-30 
_audit_creation_method            'lammps2cif' 
_symmetry_space_group_name_H-M    'P1' 
_symmetry_Int_Tables_number       1 
_symmetry_cell_setting            triclinic 
loop_ 
_symmetry_equiv_pos_as_xyz 
  x,y,z 
_cell_length_a                    33.564826619877856 
_cell_length_b                    33.29119621740297 
_cell_length_c                    22.33177197210404 
_cell_angle_alpha                 89.20944686074036 
_cell_angle_beta                  90.49984117990999 
_cell_angle_gamma                 89.41079388095501 
loop_ 
_atom_site_label 
_atom_site_type_symbol 
_atom_site_fract_x 
_atom_site_fract_y 
_atom_site_fract_z 
_atom_site_charge 
O1          O  0.44402966  0.49763593  0.71622639    -0.72180
O2          O  0.06450410  0.01592172  0.71636770    -0.72400
O3          O  0.01295521  0.45161043  0.69356286    -0.71980
O4          O  0.50154078  0.06157534  0.70664091    -0.72270
O5          O  0.48562000  0.05902303  0.79781538    -0.72230
O6          O  0.02309387  0.44256409  0.78776980    -0.72250
O7          O  0.05840699  0.01520257  0.81127848    -0.72190
O8          O  0.45233224  0.48548692  0.80889461    -0.72380
V9          V  0.50523838  0.50609097  0.70977950     1.35240
V10         V  0.00529654  0.00063751  0.80016276     1.35170
C11         C  0.42749488  0.48765117  0.76791518     0.77060
C12         C  0.08028350  0.02369793  0.76883055     0.77110
C13         C  0.02425508  0.42785729  0.73328719     0.76980
C14         C  0.48566410  0.07955690  0.74692388     0.76940
O15         O  0.44463050  0.49640492  0.29288102    -0.72180
O16         O  0.06415064  0.01028934  0.29179550    -0.72400
O17         O  0.50120863  0.05861449  0.31061004    -0.72260
O18         O  0.00865282  0.44714957  0.30941600    -0.72270
O19         O  0.01687673  0.44486505  0.21478787    -0.72230
O20         O  0.48465520  0.06163605  0.21793756    -0.72250
O21         O  0.05511917  0.01681892  0.19715406    -0.72190
O22         O  0.45097511  0.49051875  0.19945585    -0.72380
V23         V  0.50456503  0.50300221  0.29978537     1.35240
V24         V  0.00250564  0.00378507  0.20897800     1.35170
C25         C  0.42861942  0.48700111  0.24141864     0.77060
C26         C  0.07907716  0.01901448  0.23890621     0.77110
C27         C  0.48566705  0.07924365  0.27045125     0.76980
C28         C  0.01799499  0.42594179  0.26683103     0.76940
O29         O  0.09990590  0.28274535  0.94594892    -0.72180
O30         O  0.11400532  0.20350719  0.06324803    -0.72400
O31         O  0.11510696  0.20488269  0.94198421    -0.72260
O32         O  0.09584549  0.28104569  0.06354852    -0.72270
O33         O  0.03372453  0.26293831  0.06251997    -0.72230
O34         O  0.05097738  0.19834931  0.93366059    -0.72250
O35         O  0.05199450  0.18696127  0.05201391    -0.72190
O36         O  0.03593946  0.27420977  0.94670640    -0.72380
V37         V  0.10528930  0.24279351  0.00361658     1.35240
V38         V  0.04443713  0.23069592  0.99902170     1.35170
C39         C  0.06601617  0.29194641  0.92624866     0.77060
C40         C  0.08534972  0.18163088  0.07741552     0.77110
C41         C  0.08513189  0.18966623  0.91613838     0.76980
C42         C  0.06077240  0.28397426  0.08337983     0.76940
C43         C  0.38332113  0.46863075  0.78439025    -0.02890
C44         C  0.38875569  0.46462113  0.22240256    -0.02890
C45         C  0.12049561  0.04066313  0.22300735    -0.02890
C46         C  0.12036054  0.04871881  0.78477471    -0.02890
C47         C  0.27405034  0.50347865  0.00445132     0.00160
C48         C  0.23042293  0.00579716  0.00471647     0.00160
O49         O  0.45907849  0.22788901  0.05252563    -0.72180
O50         O  0.44168371  0.31594614  0.94780610    -0.72400
O51         O  0.45012333  0.30707865  0.06498406    -0.72260
O52         O  0.45308598  0.23778544  0.93556223    -0.72270
O53         O  0.39054098  0.22310433  0.94816617    -0.72230
O54         O  0.38533915  0.30525360  0.06413875    -0.72250
O55         O  0.37850040  0.30223283  0.94448913    -0.72190
O56         O  0.39502357  0.22565306  0.06629145    -0.72380
V57         V  0.44985946  0.27193591  0.00025315     1.35240
V58         V  0.38837229  0.26412748  0.00579924     1.35170
C59         C  0.42954942  0.21324443  0.07922605     0.77060
C60         C  0.40716223  0.32319136  0.92717673     0.77110
C61         C  0.41743439  0.32005809  0.08400292     0.76980
C62         C  0.42311239  0.21782236  0.92137198     0.76940
O63         O  0.26669709  0.45526304  0.55730067    -0.72180
O64         O  0.19176801  0.44161897  0.43632558    -0.72400
O65         O  0.18984996  0.43964324  0.55353101    -0.72260
O66         O  0.26827225  0.45606734  0.43987345    -0.72270
O67         O  0.27764112  0.39160823  0.43297312    -0.72230
O68         O  0.20749266  0.37666777  0.55980331    -0.72250
O69         O  0.20081729  0.37680675  0.44164079    -0.72190
O70         O  0.28510401  0.39255951  0.55301985    -0.72380
V71         V  0.22966410  0.44694012  0.49682435     1.35240
V72         V  0.24275313  0.38542864  0.49694149     1.35170
C73         C  0.28833799  0.42684336  0.57611057     0.77060
C74         C  0.18196408  0.40702814  0.42085493     0.77110
C75         C  0.18467434  0.40491043  0.57472022     0.76980
C76         C  0.28409001  0.42674630  0.41489015     0.76940
C77         C  0.04142404  0.38495983  0.71059292    -0.02890
C78         C  0.03761267  0.38238164  0.28267678    -0.02890
C79         C  0.45845443  0.11668935  0.29232452    -0.02890
C80         C  0.45819387  0.11650605  0.72227138    -0.02890
C81         C  0.99610739  0.27592535  0.50165436     0.00160
C82         C  0.49305009  0.23219875  0.50382617     0.00160
O83         O  0.22999851  0.08781308  0.43684403    -0.72180
O84         O  0.30790093  0.10239652  0.55706703    -0.72400
O85         O  0.30917822  0.09484515  0.43600272    -0.72260
O86         O  0.22936489  0.09540177  0.55443826    -0.72270
O87         O  0.23969578  0.03122526  0.56820076    -0.72230
O88         O  0.31333803  0.02981969  0.44369285    -0.72250
O89         O  0.31700576  0.03765053  0.56251349    -0.72190
O90         O  0.23496115  0.02344644  0.45278956    -0.72380
V91         V  0.26948682  0.09411643  0.49606757     1.35240
V92         V  0.27619120  0.03188159  0.50629265     1.35170
C93         C  0.21868592  0.05262701  0.42651874     0.77060
C94         C  0.32445249  0.07211037  0.58170957     0.77110
C95         C  0.32420309  0.06197472  0.41896382     0.76980
C96         C  0.22196526  0.06307186  0.58177005     0.76940
C97         C  0.44615228  0.15267156  0.61406428    -0.09560
C98         C  0.47268670  0.14508392  0.66404989     0.06640
C99         C  0.50646622  0.17135479  0.66122903    -0.03330
C100        C  0.51415126  0.19838141  0.61048270    -0.07780
C101        C  0.48619313  0.20542531  0.56257400     0.05750
C102        C  0.45058990  0.18340278  0.56992852    -0.02800
Br103      Br  0.40100761  0.20265864  0.53661011    -0.02500
H104        H  0.41723500  0.13919031  0.61260870     0.09660
H105        H  0.04138220  0.21552548  0.61041281     0.07680
Br106      Br  0.54008064  0.17606584  0.72945950    -0.02920
C107        C  0.38185619  0.10829786  0.71506605    -0.09560
C108        C  0.42057691  0.09455747  0.69910173     0.06640
C109        C  0.42247100  0.06654805  0.65064568    -0.03330
C110        C  0.38757519  0.05255063  0.62599900    -0.07780
C111        C  0.35341842  0.07604558  0.62968649     0.05750
C112        C  0.35018468  0.10435277  0.67517806    -0.02800
Br113      Br  0.30627340  0.14162731  0.68136301    -0.02500
H114        H  0.37666400  0.12815744  0.75188431     0.09660
H115        H  0.38913403  0.02884847  0.59366075     0.07680
Br116      Br  0.46676089  0.05593534  0.59764743    -0.02920
C117        C  0.51020158  0.15226891  0.37200904    -0.09560
C118        C  0.47079290  0.14620708  0.34895707     0.06640
C119        C  0.44188367  0.17100867  0.37992793    -0.03330
C120        C  0.45246349  0.20469742  0.41486823    -0.07780
C121        C  0.48930812  0.20698189  0.44409494     0.05750
C122        C  0.51860964  0.17961651  0.42110279    -0.02800
Br123      Br  0.07112975  0.18042584  0.45437137    -0.02500
H124        H  0.53441459  0.13463653  0.35388337     0.09660
H125        H  0.42907478  0.22490734  0.42891400     0.07680
Br126      Br  0.39226203  0.15128995  0.41100663    -0.02920
C127        C  0.35187795  0.07532136  0.31760841    -0.09560
C128        C  0.35709604  0.06174395  0.37674308     0.06640
C129        C  0.39558851  0.05477751  0.39885352    -0.03330
C130        C  0.42759150  0.07082931  0.36856028    -0.07780
C131        C  0.42232703  0.09206774  0.31367401     0.05750
C132        C  0.38489738  0.08746763  0.28398319    -0.02800
Br133      Br  0.37640254  0.09250489  0.19912297    -0.02500
H134        H  0.32225665  0.07686738  0.29798957     0.09660
H135        H  0.45609914  0.07038875  0.39159640     0.07680
Br136      Br  0.40571114  0.03072885  0.47534103    -0.02920
C137        C  0.03044509  0.28955008  0.40139494    -0.09560
C138        C  0.99941496  0.29893451  0.43990718     0.06640
C139        C  0.97691115  0.33422308  0.42281971    -0.03330
C140        C  0.98826937  0.36000564  0.37330277    -0.07780
C141        C  0.02077678  0.35151087  0.33527082     0.05750
C142        C  0.03986955  0.31306327  0.35005405    -0.02800
Br143      Br  0.07778072  0.28489074  0.30285742    -0.02500
H144        H  0.04844274  0.26321321  0.41190637     0.09660
H145        H  0.97158590  0.38700272  0.36454987     0.07680
Br146      Br  0.93053294  0.34895663  0.46729842    -0.02920
C147        C  0.01676172  0.34449478  0.54950205    -0.09560
C148        C  0.00167011  0.30485708  0.55725045     0.06640
C149        C  0.98903902  0.29751445  0.61656639    -0.03330
C150        C  0.00221480  0.32129424  0.66555697    -0.07780
C151        C  0.01631330  0.36154226  0.65847701     0.05750
C152        C  0.01875325  0.37328958  0.59629071    -0.02800
Br153      Br  0.03133870  0.42685433  0.57042372    -0.02500
H154        H  0.02642559  0.35460431  0.50594231     0.09660
H155        H  0.99946643  0.30760555  0.70919662     0.07680
Br156      Br  0.43758454  0.27681963  0.62714080    -0.02920
C157        C  0.07858598  0.41358873  0.36250212    -0.09560
C158        C  0.07975192  0.39066768  0.30942140     0.06640
C159        C  0.11815368  0.37335918  0.29408383    -0.03330
C160        C  0.15048613  0.37840524  0.33267474    -0.07780
C161        C  0.14774443  0.40256493  0.38237273     0.05750
C162        C  0.11199344  0.42160201  0.39618700    -0.02800
Br163      Br  0.10577472  0.45604518  0.46403553    -0.02500
H164        H  0.05090848  0.42376265  0.38139124     0.09660
H165        H  0.17869849  0.36383172  0.32335948     0.07680
Br166      Br  0.13529036  0.34113007  0.22712997    -0.02920
C167        C  0.13874741  0.42866497  0.65011272    -0.09560
C168        C  0.15157103  0.39759220  0.61352687     0.06640
C169        C  0.13207013  0.36053891  0.61434251    -0.03330
C170        C  0.09828813  0.35669099  0.64841163    -0.07780
C171        C  0.08210686  0.38978961  0.67982745     0.05750
C172        C  0.10693675  0.42280276  0.68783018    -0.02800
Br173      Br  0.11731486  0.44005490  0.76585743    -0.02500
H174        H  0.15627440  0.45564688  0.65448883     0.09660
H175        H  0.08375159  0.32781451  0.64882379     0.07680
Br176      Br  0.14692569  0.31514156  0.56667904    -0.02920
C177        C  0.47636606  0.14311942  0.18932936    -0.09560
C178        C  0.44995193  0.14505571  0.23833562     0.06640
C179        C  0.41742221  0.17342276  0.23260198    -0.03330
C180        C  0.41221429  0.19514117  0.17993898    -0.07780
C181        C  0.43499898  0.18692991  0.13021826     0.05750
C182        C  0.46559988  0.15876827  0.13405446    -0.02800
Br183      Br  0.48584686  0.13293557  0.06536297    -0.02500
H184        H  0.50438556  0.12692347  0.19135248     0.09660
H185        H  0.38886494  0.21792094  0.17677672     0.07680
Br186      Br  0.37271547  0.18339018  0.28272647    -0.02920
C187        C  0.43351106  0.20879277  0.81642082    -0.09560
C188        C  0.42674369  0.19130197  0.87197239     0.06640
C189        C  0.42539224  0.14970666  0.87892253    -0.03330
C190        C  0.43565349  0.12587633  0.83068907    -0.07780
C191        C  0.44643352  0.14338115  0.77496019     0.05750
C192        C  0.43690139  0.18474894  0.76703585    -0.02800
Br193      Br  0.40135750  0.20367728  0.70553800    -0.02500
H194        H  0.42984916  0.24103788  0.81040358     0.09660
H195        H  0.43293359  0.09386581  0.83666087     0.07680
Br196      Br  0.41216900  0.12472207  0.95371231    -0.02920
C197        C  0.18464866  0.03785973  0.73040038    -0.09560
C198        C  0.14446438  0.04989332  0.72726410     0.06640
C199        C  0.12925012  0.06416408  0.67029785    -0.03330
C200        C  0.15490278  0.06753202  0.62201886    -0.07780
C201        C  0.19538774  0.06159838  0.63096591     0.05750
C202        C  0.21028787  0.04866075  0.68599360    -0.02800
Br203      Br  0.26526384  0.05139958  0.70618260    -0.02500
H204        H  0.19820218  0.02361450  0.76918868     0.09660
H205        H  0.14375877  0.07757827  0.57865412     0.07680
Br206      Br  0.07823987  0.08901740  0.65434556    -0.02920
C207        C  0.20407853  0.05167876  0.91989370    -0.09560
C208        C  0.20564774  0.01311243  0.94507769     0.06640
C209        C  0.18001551  0.98536627  0.91557705    -0.03330
C210        C  0.14898360  0.99847984  0.87430304    -0.07780
C211        C  0.14925491  0.03634310  0.84393591     0.05750
C212        C  0.18092718  0.06178254  0.86782643    -0.02800
Br213      Br  0.20394414  0.10781233  0.83036916    -0.02500
H214        H  0.22409999  0.07375039  0.93834730     0.09660
H215        H  0.12616804  0.97746609  0.86403048     0.07680
Br216      Br  0.19436762  0.42946090  0.91216792    -0.02920
C217        C  0.12798193  0.05933637  0.33153157    -0.09560
C218        C  0.14238869  0.03833019  0.28188789     0.06640
C219        C  0.17335396  0.00978757  0.29263468    -0.03330
C220        C  0.19820231  0.01497300  0.34100963    -0.07780
C221        C  0.18928372  0.04452087  0.38229929     0.05750
C222        C  0.15219203  0.06369861  0.38154814    -0.02800
Br223      Br  0.13415255  0.09531261  0.44704029    -0.02500
H224        H  0.09947722  0.07490969  0.32946268     0.09660
H225        H  0.22459095  0.99610833  0.34614805     0.07680
Br226      Br  0.18109659  0.96072355  0.24993958    -0.02920
C227        C  0.21336143  0.04058350  0.10657375    -0.09560
C228        C  0.20400062  0.01158149  0.06300284     0.06640
C229        C  0.16726767  0.99105977  0.07529324    -0.03330
C230        C  0.14189311  0.00101192  0.12399767    -0.07780
C231        C  0.15177818  0.02796266  0.16950139     0.05750
C232        C  0.18920119  0.04807286  0.15833578    -0.02800
Br233      Br  0.21022799  0.08796596  0.21051393    -0.02500
H234        H  0.24015948  0.05796424  0.10050291     0.09660
H235        H  0.11258145  0.98881644  0.12424298     0.07680
Br236      Br  0.15031140  0.44367024  0.03650692    -0.02920
C237        C  0.33033334  0.42831589  0.26659045    -0.09560
C238        C  0.36384986  0.45294479  0.27747293     0.06640
C239        C  0.37297656  0.46122667  0.33888248    -0.03330
C240        C  0.34350513  0.45680670  0.38064041    -0.07780
C241        C  0.31033419  0.43439256  0.36738266     0.05750
C242        C  0.30391946  0.41873685  0.31100024    -0.02800
Br243      Br  0.25955241  0.38542830  0.29185154    -0.02500
H244        H  0.32461450  0.41624633  0.22258670     0.09660
H245        H  0.34949653  0.46412752  0.42705445     0.07680
Br246      Br  0.42180740  0.44835692  0.38163032    -0.02920
C247        C  0.31690323  0.48553248  0.17150476    -0.09560
C248        C  0.35970157  0.48722482  0.16923587     0.06640
C249        C  0.37123917  0.50357169  0.11108738    -0.03330
C250        C  0.34327941  0.50970426  0.06192942    -0.07780
C251        C  0.30213746  0.49916095  0.06301020     0.05750
C252        C  0.29126063  0.48332305  0.12000589    -0.02800
Br253      Br  0.25008949  0.94435934  0.12834587    -0.02500
H254        H  0.30175134  0.48274958  0.21344337     0.09660
H255        H  0.35498027  0.52269960  0.02143611     0.07680
Br256      Br  0.42170341  0.52801921  0.09370278    -0.02920
C257        C  0.39930741  0.35023472  0.18023737    -0.09560
C258        C  0.41701165  0.35381918  0.12467134     0.06640
C259        C  0.43478205  0.39009808  0.10876172    -0.03330
C260        C  0.42449254  0.42453639  0.13944594    -0.07780
C261        C  0.40359853  0.42338509  0.19426613     0.05750
C262        C  0.39752883  0.38322403  0.21812941    -0.02800
Br263      Br  0.39467282  0.36633215  0.30081001    -0.02500
H264        H  0.39023786  0.32081779  0.19617296     0.09660
H265        H  0.43435095  0.45184838  0.11943288     0.07680
Br266      Br  0.47548845  0.39427990  0.04924487    -0.02920
C267        C  0.32077482  0.47104498  0.71861387    -0.09560
C268        C  0.36154087  0.46121617  0.72345233     0.06640
C269        C  0.37836580  0.44006808  0.67361796    -0.03330
C270        C  0.35443417  0.42881697  0.62524323    -0.07780
C271        C  0.31360624  0.43473572  0.62719236     0.05750
C272        C  0.29664954  0.45407500  0.67562962    -0.02800
Br273      Br  0.24037431  0.45159238  0.69009906    -0.02500
H274        H  0.30551530  0.48761388  0.75235088     0.09660
H275        H  0.36743198  0.41397907  0.58705009     0.07680
Br276      Br  0.43091463  0.41870111  0.66799629    -0.02920
C277        C  0.29689126  0.46473372  0.91207290    -0.09560
C278        C  0.29745839  0.50065781  0.94292738     0.06640
C279        C  0.32252544  0.53054230  0.91592062    -0.03330
C280        C  0.34926895  0.52212031  0.86599355    -0.07780
C281        C  0.35015809  0.48434384  0.83588093     0.05750
C282        C  0.31859976  0.45775901  0.85873822    -0.02800
Br283      Br  0.29622340  0.41143963  0.82030787    -0.02500
H284        H  0.27783759  0.44135176  0.92935578     0.09660
H285        H  0.36919351  0.54542977  0.85080108     0.07680
Br286      Br  0.31865524  0.08416843  0.94463472    -0.02920
C287        C  0.41447397  0.39390129  0.90990138    -0.09560
C288        C  0.40038119  0.35791533  0.88885002     0.06640
C289        C  0.38153366  0.35627098  0.83294722    -0.03330
C290        C  0.38054314  0.39076886  0.79634372    -0.07780
C291        C  0.39419970  0.42849097  0.81727650     0.05750
C292        C  0.41082799  0.42899546  0.87696231    -0.02800
Br293      Br  0.42371761  0.47539281  0.92490337    -0.02500
H294        H  0.42642205  0.39505107  0.95457703     0.09660
H295        H  0.36636748  0.38755141  0.75331203     0.07680
Br296      Br  0.36151333  0.30692912  0.80172516    -0.02920
C297        C  0.11564212  0.16224825  0.82452303    -0.09560
C298        C  0.08841330  0.15933566  0.87084005     0.06640
C299        C  0.06496988  0.12524556  0.87574012    -0.03330
C300        C  0.07824083  0.09092555  0.85009726    -0.07780
C301        C  0.10550506  0.09110155  0.80257862     0.05750
C302        C  0.12110806  0.12998449  0.78551718    -0.02800
Br303      Br  0.15293385  0.14536351  0.71730214    -0.02500
H304        H  0.13148631  0.19011705  0.81750622     0.09660
H305        H  0.06856467  0.06416676  0.87264201     0.07680
Br306      Br  0.01708103  0.12051679  0.92103820    -0.02920
C307        C  0.10333718  0.15559617  0.17826305    -0.09560
C308        C  0.09124052  0.14893447  0.11942855     0.06640
C309        C  0.08714568  0.11034889  0.09925794    -0.03330
C310        C  0.08946892  0.07913450  0.13907686    -0.07780
C311        C  0.10679795  0.08268524  0.19707499     0.05750
C312        C  0.11357422  0.12326657  0.21676072    -0.02800
Br313      Br  0.13919312  0.14252713  0.28794662    -0.02500
H314        H  0.10750393  0.18626053  0.19267765     0.09660
H315        H  0.08386563  0.05051667  0.11917054     0.07680
Br316      Br  0.09036019  0.09694901  0.01657019    -0.02920
C317        C  0.01308000  0.32815282  0.21559217    -0.09560
C318        C  0.03738766  0.36174179  0.22307876     0.06640
C319        C  0.05972726  0.37531464  0.17315764    -0.03330
C320        C  0.06527072  0.35005976  0.12541706    -0.07780
C321        C  0.05006922  0.31161502  0.12841559     0.05750
C322        C  0.02246524  0.30091641  0.17235571    -0.02800
Br323      Br  0.00387709  0.24738208  0.18495298    -0.02500
H324        H  0.99075558  0.31964994  0.24786851     0.09660
H325        H  0.08444435  0.35899546  0.08882045     0.07680
Br326      Br  0.09176196  0.42207716  0.17120606    -0.02920
C327        C  0.02365732  0.32995584  0.85776659    -0.09560
C328        C  0.06200412  0.31967225  0.87666402     0.06640
C329        C  0.09488857  0.33043505  0.84173859    -0.03330
C330        C  0.08810408  0.34862459  0.78696424    -0.07780
C331        C  0.04912980  0.35936825  0.76689057     0.05750
C332        C  0.01742470  0.34961691  0.80404622    -0.02800
Br333      Br  0.96473303  0.35994872  0.78173377    -0.02500
H334        H  0.99814907  0.32126441  0.88357950     0.09660
H335        H  0.11462744  0.35474294  0.76180670     0.07680
Br336      Br  0.15012292  0.32114934  0.86306714    -0.02920
O337        O  0.44404172  0.99763855  0.71622576    -0.72180
O338        O  0.06449172  0.51591898  0.71636433    -0.72400
O339        O  0.01296707  0.95161306  0.69356007    -0.71980
O340        O  0.50152782  0.56157270  0.70663710    -0.72270
O341        O  0.48560829  0.55902268  0.79781228    -0.72230
O342        O  0.02310295  0.94256370  0.78776707    -0.72250
O343        O  0.05839545  0.51520407  0.81127534    -0.72190
O344        O  0.45234306  0.98548865  0.80889359    -0.72380
V345        V  0.50525071  0.00609347  0.70978039     1.35240
V346        V  0.00528546  0.50063746  0.80016225     1.35170
C347        C  0.42750606  0.98765403  0.76791400     0.77060
C348        C  0.08027173  0.52369682  0.76882611     0.77110
C349        C  0.02426439  0.92785805  0.73328360     0.76980
C350        C  0.48565222  0.57955554  0.74691991     0.76940
O351        O  0.44464347  0.99640211  0.29288547    -0.72180
O352        O  0.06413867  0.51028713  0.29179057    -0.72400
O353        O  0.50119926  0.55861470  0.31060443    -0.72260
O354        O  0.00866800  0.94714962  0.30941936    -0.72270
O355        O  0.01688662  0.94486502  0.21479004    -0.72230
O356        O  0.48464201  0.56163505  0.21793332    -0.72250
O357        O  0.05510614  0.51682002  0.19714982    -0.72190
O358        O  0.45098667  0.99052208  0.19945918    -0.72380
V359        V  0.50457743  0.00300214  0.29978963     1.35240
V360        V  0.00249346  0.50378430  0.20897410     1.35170
C361        C  0.42863202  0.98700077  0.24142240     0.77060
C362        C  0.07906468  0.51901379  0.23890138     0.77110
C363        C  0.48565660  0.57924348  0.27044634     0.76980
C364        C  0.01800650  0.92594142  0.26683292     0.76940
O365        O  0.09991278  0.78274223  0.94593882    -0.72180
O366        O  0.11400474  0.70350931  0.06324810    -0.72400
O367        O  0.11511121  0.70487866  0.94198421    -0.72260
O368        O  0.09584808  0.78104859  0.06353872    -0.72270
O369        O  0.03372927  0.76293406  0.06251944    -0.72230
O370        O  0.05098099  0.69835840  0.93364378    -0.72250
O371        O  0.05199688  0.68695778  0.05199480    -0.72190
O372        O  0.03594491  0.77421780  0.94670840    -0.72380
V373        V  0.10529299  0.74279316  0.00361155     1.35240
V374        V  0.04444089  0.73069809  0.99901302     1.35170
C375        C  0.06602278  0.79195006  0.92624604     0.77060
C376        C  0.08534943  0.68162966  0.07740556     0.77110
C377        C  0.08513594  0.68966834  0.91613041     0.76980
C378        C  0.06077590  0.78397371  0.08337494     0.76940
C379        C  0.38333170  0.96863462  0.78438860    -0.02890
C380        C  0.38876929  0.96461978  0.22240523    -0.02890
C381        C  0.12048305  0.54066235  0.22300203    -0.02890
C382        C  0.12035000  0.54871623  0.78476652    -0.02890
C383        C  0.27406254  0.00347716  0.00445501     0.00160
C384        C  0.23041069  0.50579747  0.00471161     0.00160
O385        O  0.45907902  0.72788834  0.05252102    -0.72180
O386        O  0.44169131  0.81594597  0.94780058    -0.72400
O387        O  0.45013113  0.80707866  0.06497858    -0.72260
O388        O  0.45308621  0.73778423  0.93555723    -0.72270
O389        O  0.39053952  0.72311017  0.94816148    -0.72230
O390        O  0.38534677  0.80525831  0.06413627    -0.72250
O391        O  0.37850643  0.80223935  0.94448669    -0.72190
O392        O  0.39502383  0.72565731  0.06628662    -0.72380
V393        V  0.44986347  0.77193550  0.00024802     1.35240
V394        V  0.38837550  0.76413276  0.00579556     1.35170
C395        C  0.42954875  0.71324622  0.07922147     0.77060
C396        C  0.40717017  0.82319454  0.92717264     0.77110
C397        C  0.41744351  0.82005998  0.08399968     0.76980
C398        C  0.42311020  0.71782472  0.92136687     0.76940
O399        O  0.26670465  0.95526446  0.55729661    -0.72180
O400        O  0.19177761  0.94161275  0.43632096    -0.72400
O401        O  0.18985871  0.93963977  0.55352612    -0.72260
O402        O  0.26828047  0.95606597  0.43986914    -0.72270
O403        O  0.27765444  0.89160713  0.43297458    -0.72230
O404        O  0.20750298  0.87666483  0.55980075    -0.72250
O405        O  0.20083093  0.87680113  0.44163783    -0.72190
O406        O  0.28511400  0.89256144  0.55302171    -0.72380
V407        V  0.22967268  0.94693760  0.49682000     1.35240
V408        V  0.24276498  0.88542672  0.49694087     1.35170
C409        C  0.28834644  0.92684640  0.57610969     0.77060
C410        C  0.18197579  0.90702113  0.42085123     0.77110
C411        C  0.18468367  0.90490707  0.57471607     0.76980
C412        C  0.28410099  0.92674513  0.41488914     0.76940
C413        C  0.04143222  0.88496007  0.71058822    -0.02890
C414        C  0.03762134  0.88237940  0.28267596    -0.02890
C415        C  0.45844644  0.61669055  0.29232039    -0.02890
C416        C  0.45818322  0.61650555  0.72226696    -0.02890
C417        C  0.99610963  0.77592352  0.50165162     0.00160
C418        C  0.49304919  0.73219700  0.50382313     0.00160
O419        O  0.22998859  0.58781477  0.43683753    -0.72180
O420        O  0.30788796  0.60239580  0.55706640    -0.72400
O421        O  0.30916816  0.59484833  0.43600113    -0.72260
O422        O  0.22935165  0.59539919  0.55443220    -0.72270
O423        O  0.23968244  0.53122208  0.56818792    -0.72230
O424        O  0.31333029  0.52982287  0.44368872    -0.72250
O425        O  0.31699297  0.53764975  0.56251032    -0.72190
O426        O  0.23495373  0.52344772  0.45277659    -0.72380
V427        V  0.26947535  0.59411687  0.49606393     1.35240
V428        V  0.27618091  0.53188182  0.50628463     1.35170
C429        C  0.21867782  0.55262868  0.42650806     0.77060
C430        C  0.32443942  0.57210923  0.58170817     0.77110
C431        C  0.32419437  0.56197870  0.41896138     0.76980
C432        C  0.22195094  0.56306768  0.58175906     0.76940
C433        C  0.44614423  0.65267310  0.61406095    -0.09560
C434        C  0.47267802  0.64508318  0.66404649     0.06640
C435        C  0.50645953  0.67135151  0.66122646    -0.03330
C436        C  0.51414726  0.69837718  0.61047990    -0.07780
C437        C  0.48619007  0.70542325  0.56257044     0.05750
C438        C  0.45058476  0.68340382  0.56992486    -0.02800
Br439      Br  0.40100418  0.70266468  0.53660678    -0.02500
H440        H  0.41722579  0.63919400  0.61260585     0.09660
H441        H  0.04137951  0.71551914  0.61041068     0.07680
Br442      Br  0.54007332  0.67606034  0.72945850    -0.02920
C443        C  0.38184513  0.60829587  0.71506388    -0.09560
C444        C  0.42056597  0.59455773  0.69909612     0.06640
C445        C  0.42245992  0.56654899  0.65063930    -0.03330
C446        C  0.38756406  0.55255111  0.62599304    -0.07780
C447        C  0.35340600  0.57604379  0.62968478     0.05750
C448        C  0.35017201  0.60434906  0.67517899    -0.02800
Br449      Br  0.30625680  0.64161790  0.68137297    -0.02500
H450        H  0.37665325  0.62815417  0.75188381     0.09660
H451        H  0.38912305  0.52885003  0.59365314     0.07680
Br452      Br  0.46675001  0.55593719  0.59764113    -0.02920
C453        C  0.51019593  0.65226747  0.37200419    -0.09560
C454        C  0.47078672  0.64620743  0.34895305     0.06640
C455        C  0.44187887  0.67101018  0.37992474    -0.03330
C456        C  0.45246056  0.70469820  0.41486530    -0.07780
C457        C  0.48930555  0.70698082  0.44409142     0.05750
C458        C  0.51860567  0.67961442  0.42109811    -0.02800
Br459      Br  0.07112618  0.68042178  0.45436523    -0.02500
H460        H  0.53440804  0.63463423  0.35387766     0.09660
H461        H  0.42907297  0.72490934  0.42891120     0.07680
Br462      Br  0.39225602  0.65129408  0.41100305    -0.02920
C463        C  0.35186846  0.57532765  0.31760647    -0.09560
C464        C  0.35708700  0.56174928  0.37674053     0.06640
C465        C  0.39557941  0.55478080  0.39884958    -0.03330
C466        C  0.42758251  0.57083176  0.36855598    -0.07780
C467        C  0.42231812  0.59207084  0.31367025     0.05750
C468        C  0.38488785  0.58747281  0.28398046    -0.02800
Br469      Br  0.37639190  0.59251082  0.19912059    -0.02500
H470        H  0.32224692  0.57687486  0.29798858     0.09660
H471        H  0.45609047  0.57038961  0.39159117     0.07680
Br472      Br  0.40570235  0.53072951  0.47533516    -0.02920
C473        C  0.03044855  0.78954679  0.40139181    -0.09560
C474        C  0.99941857  0.79893234  0.43990404     0.06640
C475        C  0.97691610  0.83422166  0.42281614    -0.03330
C476        C  0.98827614  0.86000435  0.37330025    -0.07780
C477        C  0.02078341  0.85150857  0.33526865     0.05750
C478        C  0.03987423  0.81305993  0.35005116    -0.02800
Br479      Br  0.07778449  0.78488683  0.30285360    -0.02500
H480        H  0.04844505  0.76320911  0.41190294     0.09660
H481        H  0.97159421  0.88700232  0.36454755     0.07680
Br482      Br  0.93053772  0.84895619  0.46729375    -0.02920
C483        C  0.01676516  0.84449357  0.54949831    -0.09560
C484        C  0.00167411  0.80485552  0.55724769     0.06640
C485        C  0.98904780  0.79751204  0.61656598    -0.03330
C486        C  0.00222596  0.82129212  0.66555456    -0.07780
C487        C  0.01632146  0.86154119  0.65847351     0.05750
C488        C  0.01875884  0.87328834  0.59628708    -0.02800
Br489      Br  0.03134215  0.92685336  0.57041948    -0.02500
H490        H  0.02642721  0.85460354  0.50593793     0.09660
H491        H  0.99948208  0.80760238  0.70919425     0.07680
Br492      Br  0.43759639  0.77681286  0.62715295    -0.02920
C493        C  0.07859611  0.91358015  0.36250465    -0.09560
C494        C  0.07976121  0.89066195  0.30942127     0.06640
C495        C  0.11816252  0.87335340  0.29408125    -0.03330
C496        C  0.15049601  0.87839836  0.33267106    -0.07780
C497        C  0.14775509  0.90255608  0.38237141     0.05750
C498        C  0.11200396  0.92159167  0.39618937    -0.02800
Br499      Br  0.10578577  0.95603155  0.46404170    -0.02500
H500        H  0.05091881  0.92375336  0.38139543     0.09660
H501        H  0.17870845  0.86382585  0.32335288     0.07680
Br502      Br  0.13529659  0.84112469  0.22712564    -0.02920
C503        C  0.13875473  0.92866376  0.65010306    -0.09560
C504        C  0.15157990  0.89758918  0.61352204     0.06640
C505        C  0.13207959  0.86053556  0.61434111    -0.03330
C506        C  0.09829660  0.85668899  0.64840892    -0.07780
C507        C  0.08211490  0.88978875  0.67982177     0.05750
C508        C  0.10694399  0.92280290  0.68782038    -0.02800
Br509      Br  0.11732361  0.94005765  0.76584524    -0.02500
H510        H  0.15628120  0.95564624  0.65447680     0.09660
H511        H  0.08376025  0.82781244  0.64882333     0.07680
Br512      Br  0.14693813  0.81513566  0.56668513    -0.02920
C513        C  0.47636071  0.64311982  0.18932644    -0.09560
C514        C  0.44994579  0.64505726  0.23833164     0.06640
C515        C  0.41741748  0.67342574  0.23259723    -0.03330
C516        C  0.41221085  0.69514382  0.17993369    -0.07780
C517        C  0.43499619  0.68693164  0.13021386     0.05750
C518        C  0.46559624  0.65876919  0.13405132    -0.02800
Br519      Br  0.48584521  0.63293729  0.06536054    -0.02500
H520        H  0.50437941  0.62692239  0.19135054     0.09660
H521        H  0.38886235  0.71792442  0.17677060     0.07680
Br522      Br  0.37271178  0.68339631  0.28272247    -0.02920
C523        C  0.43350165  0.70879364  0.81641380    -0.09560
C524        C  0.42673794  0.69130386  0.87196725     0.06640
C525        C  0.42538613  0.64970867  0.87891910    -0.03330
C526        C  0.43564482  0.62587743  0.83068553    -0.07780
C527        C  0.44642297  0.64338125  0.77495515     0.05750
C528        C  0.43688960  0.68474871  0.76702945    -0.02800
Br529      Br  0.40134284  0.70367490  0.70553320    -0.02500
H530        H  0.42983939  0.74103859  0.81039557     0.09660
H531        H  0.43292435  0.59386710  0.83665875     0.07680
Br532      Br  0.41216477  0.62472533  0.95371071    -0.02920
C533        C  0.18463333  0.53784619  0.73038505    -0.09560
C534        C  0.14445117  0.54988711  0.72725339     0.06640
C535        C  0.12923639  0.56416029  0.67028879    -0.03330
C536        C  0.15488826  0.56752825  0.62200881    -0.07780
C537        C  0.19537292  0.56159114  0.63095395     0.05750
C538        C  0.21027277  0.54864777  0.68597886    -0.02800
Br539      Br  0.26524901  0.55138488  0.70616697    -0.02500
H540        H  0.19818553  0.52359675  0.76917118     0.09660
H541        H  0.14374428  0.57757777  0.57864574     0.07680
Br542      Br  0.07822658  0.58901534  0.65434043    -0.02920
C543        C  0.20407537  0.55167427  0.91987482    -0.09560
C544        C  0.20563577  0.51311122  0.94507162     0.06640
C545        C  0.17999656  0.48536705  0.91558029    -0.03330
C546        C  0.14896554  0.49848228  0.87430604    -0.07780
C547        C  0.14924578  0.53634057  0.84392580     0.05750
C548        C  0.18092463  0.56177608  0.86780591    -0.02800
Br549      Br  0.20394845  0.60779675  0.83033309    -0.02500
H550        H  0.22410243  0.57374388  0.93831998     0.09660
H551        H  0.12614451  0.47747235  0.86404115     0.07680
Br552      Br  0.19438807  0.92946023  0.91217234    -0.02920
C553        C  0.12797073  0.55933334  0.33152695    -0.09560
C554        C  0.14237719  0.53832883  0.28188165     0.06640
C555        C  0.17334486  0.50978837  0.29262534    -0.03330
C556        C  0.19819505  0.51497573  0.34099755    -0.07780
C557        C  0.18927596  0.54452281  0.38228819     0.05750
C558        C  0.15218245  0.56369690  0.38154141    -0.02800
Br559      Br  0.13414228  0.59530689  0.44703720    -0.02500
H560        H  0.09946492  0.57490469  0.32946080     0.09660
H561        H  0.22458491  0.49611253  0.34613399     0.07680
Br562      Br  0.18108813  0.46072427  0.24993081    -0.02920
C563        C  0.21334774  0.54058529  0.10656671    -0.09560
C564        C  0.20398838  0.51158156  0.06299777     0.06640
C565        C  0.16725696  0.49105779  0.07528995    -0.03330
C566        C  0.14188091  0.50101142  0.12399182    -0.07780
C567        C  0.15176524  0.52796276  0.16949509     0.05750
C568        C  0.18918746  0.54807431  0.15832872    -0.02800
Br569      Br  0.21021258  0.58796941  0.21050512    -0.02500
H570        H  0.24014486  0.55796729  0.10049470     0.09660
H571        H  0.11256936  0.48881576  0.12423607     0.07680
Br572      Br  0.15031374  0.94368020  0.03649682    -0.02920
C573        C  0.33034648  0.92831432  0.26659131    -0.09560
C574        C  0.36386299  0.95294302  0.27747498     0.06640
C575        C  0.37298859  0.96122523  0.33888484    -0.03330
C576        C  0.34351644  0.95680552  0.38064161    -0.07780
C577        C  0.31034570  0.93439154  0.36738264     0.05750
C578        C  0.30393176  0.91873568  0.31100017    -0.02800
Br579      Br  0.25956443  0.88542774  0.29185041    -0.02500
H580        H  0.32462813  0.91624497  0.22258729     0.09660
H581        H  0.34950698  0.96412650  0.42705584     0.07680
Br582      Br  0.42181850  0.94835607  0.38163546    -0.02920
C583        C  0.31691688  0.98553206  0.17150805    -0.09560
C584        C  0.35971524  0.98722301  0.16923785     0.06640
C585        C  0.37125256  0.00356869  0.11108830    -0.03330
C586        C  0.34329229  0.00970131  0.06193101    -0.07780
C587        C  0.30215015  0.99915898  0.06301329     0.05750
C588        C  0.29127358  0.98332233  0.12000995    -0.02800
Br589      Br  0.25007815  0.44435817  0.12833854    -0.02500
H590        H  0.30176558  0.98275022  0.21344734     0.09660
H591        H  0.35499269  0.02269624  0.02143699     0.07680
Br592      Br  0.42171665  0.02801565  0.09370081    -0.02920
C593        C  0.39931984  0.85023446  0.18023699    -0.09560
C594        C  0.41702385  0.85381960  0.12467082     0.06640
C595        C  0.43479625  0.89009788  0.10876344    -0.03330
C596        C  0.42450895  0.92453580  0.13945026    -0.07780
C597        C  0.40361340  0.92338418  0.19426909     0.05750
C598        C  0.39754228  0.88322299  0.21813057    -0.02800
Br599      Br  0.39468487  0.86633008  0.30081057    -0.02500
H600        H  0.39024895  0.82081760  0.19617100     0.09660
H601        H  0.43436932  0.95184757  0.11943921     0.07680
Br602      Br  0.47550059  0.89427956  0.04924352    -0.02920
C603        C  0.32078542  0.97105244  0.71861138    -0.09560
C604        C  0.36155098  0.96122121  0.72345045     0.06640
C605        C  0.37837504  0.94007233  0.67361624    -0.03330
C606        C  0.35444273  0.92882091  0.62524238    -0.07780
C607        C  0.31361503  0.93474206  0.62719048     0.05750
C608        C  0.29665922  0.95408444  0.67562601    -0.02800
Br609      Br  0.24038334  0.95160759  0.69009304    -0.02500
H610        H  0.30552688  0.98762163  0.75234906     0.09660
H611        H  0.36743989  0.91398112  0.58705039     0.07680
Br612      Br  0.43092382  0.91870509  0.66799375    -0.02920
C613        C  0.29690458  0.96473340  0.91207488    -0.09560
C614        C  0.29747020  0.00065729  0.94293020     0.06640
C615        C  0.32253542  0.03054311  0.91592294    -0.03330
C616        C  0.34927904  0.02212268  0.86599508    -0.07780
C617        C  0.35016882  0.98434676  0.83588060     0.05750
C618        C  0.31861113  0.95776112  0.85873751    -0.02800
Br619      Br  0.29623233  0.91144492  0.82030200    -0.02500
H620        H  0.27785307  0.94134994  0.92935836     0.09660
H621        H  0.36920262  0.04543308  0.85080289     0.07680
Br622      Br  0.31864901  0.58416809  0.94463191    -0.02920
C623        C  0.41448723  0.89390353  0.90989619    -0.09560
C624        C  0.40039173  0.85791851  0.88884560     0.06640
C625        C  0.38154210  0.85627523  0.83294436    -0.03330
C626        C  0.38055248  0.89077300  0.79634092    -0.07780
C627        C  0.39421028  0.92849449  0.81727367     0.05750
C628        C  0.41083998  0.92899819  0.87695874    -0.02800
Br629      Br  0.42372911  0.97539486  0.92490177    -0.02500
H630        H  0.42643731  0.89505248  0.95457078     0.09660
H631        H  0.36637575  0.88755618  0.75330990     0.07680
Br632      Br  0.36151718  0.80693475  0.80172411    -0.02920
C633        C  0.11564508  0.66224551  0.82451711    -0.09560
C634        C  0.08841625  0.65933608  0.87083448     0.06640
C635        C  0.06496870  0.62524889  0.87573459    -0.03330
C636        C  0.07823443  0.59092750  0.85008965    -0.07780
C637        C  0.10549811  0.59110045  0.80257015     0.05750
C638        C  0.12110598  0.62998157  0.78551001    -0.02800
Br639      Br  0.15292628  0.64535897  0.71728850    -0.02500
H640        H  0.13149187  0.69011268  0.81749947     0.09660
H641        H  0.06855458  0.56417005  0.87263387     0.07680
Br642      Br  0.01707933  0.62052670  0.92103325    -0.02920
C643        C  0.10333070  0.65559537  0.17825550    -0.09560
C644        C  0.09123727  0.64893341  0.11941962     0.06640
C645        C  0.08713930  0.61034783  0.09925055    -0.03330
C646        C  0.08945707  0.57913429  0.13907154    -0.07780
C647        C  0.10678540  0.58268467  0.19707034     0.05750
C648        C  0.11356274  0.62326581  0.21675597    -0.02800
Br649      Br  0.13917518  0.64252608  0.28794715    -0.02500
H650        H  0.10749830  0.68625970  0.19266972     0.09660
H651        H  0.08385224  0.55051650  0.11916590     0.07680
Br652      Br  0.09035692  0.59694575  0.01656373    -0.02920
C653        C  0.01308510  0.82815347  0.21558889    -0.09560
C654        C  0.03739476  0.86174086  0.22307668     0.06640
C655        C  0.05973451  0.87531350  0.17315555    -0.03330
C656        C  0.06527618  0.85005907  0.12541379    -0.07780
C657        C  0.05007257  0.81161500  0.12841071     0.05750
C658        C  0.02246817  0.80091733  0.17235092    -0.02800
Br659      Br  0.00387591  0.74738426  0.18494677    -0.02500
H660        H  0.99076034  0.81965136  0.24786513     0.09660
H661        H  0.08445012  0.85899445  0.08881739     0.07680
Br662      Br  0.09177108  0.92207501  0.17120456    -0.02920
C663        C  0.02366395  0.82995803  0.85776224    -0.09560
C664        C  0.06201087  0.81967756  0.87666325     0.06640
C665        C  0.09489579  0.83044306  0.84174077    -0.03330
C666        C  0.08811190  0.84862954  0.78696405    -0.07780
C667        C  0.04913758  0.85936967  0.76688675     0.05750
C668        C  0.01743173  0.84961752  0.80404065    -0.02800
Br669      Br  0.96473958  0.85994426  0.78172326    -0.02500
H670        H  0.99815523  0.82126455  0.88357250     0.09660
H671        H  0.11463557  0.85474876  0.76180767     0.07680
Br672      Br  0.15013005  0.82116671  0.86307821    -0.02920
O673        O  0.94402967  0.49763593  0.71622639    -0.72180
O674        O  0.56450409  0.01592172  0.71636770    -0.72400
O675        O  0.51295521  0.45161043  0.69356287    -0.71980
O676        O  0.00154079  0.06157535  0.70664091    -0.72270
O677        O  0.98562000  0.05902302  0.79781537    -0.72230
O678        O  0.52309387  0.44256410  0.78776982    -0.72250
O679        O  0.55840699  0.01520257  0.81127849    -0.72190
O680        O  0.95233224  0.48548692  0.80889460    -0.72380
V681        V  0.00523839  0.50609097  0.70977949     1.35240
V682        V  0.50529654  0.00063751  0.80016277     1.35170
C683        C  0.92749488  0.48765117  0.76791518     0.77060
C684        C  0.58028350  0.02369793  0.76883056     0.77110
C685        C  0.52425509  0.42785730  0.73328721     0.76980
C686        C  0.98566410  0.07955690  0.74692388     0.76940
O687        O  0.94463050  0.49640492  0.29288101    -0.72180
O688        O  0.56415065  0.01028934  0.29179551    -0.72400
O689        O  0.00120863  0.05861450  0.31061002    -0.72260
O690        O  0.50865283  0.44714956  0.30941601    -0.72270
O691        O  0.51687673  0.44486505  0.21478787    -0.72230
O692        O  0.98465519  0.06163604  0.21793755    -0.72250
O693        O  0.55511918  0.01681891  0.19715406    -0.72190
O694        O  0.95097511  0.49051875  0.19945585    -0.72380
V695        V  0.00456503  0.50300221  0.29978537     1.35240
V696        V  0.50250564  0.00378507  0.20897800     1.35170
C697        C  0.92861942  0.48700111  0.24141864     0.77060
C698        C  0.57907717  0.01901448  0.23890621     0.77110
C699        C  0.98566705  0.07924365  0.27045123     0.76980
C700        C  0.51799499  0.42594178  0.26683104     0.76940
O701        O  0.59990591  0.28274534  0.94594891    -0.72180
O702        O  0.61400533  0.20350719  0.06324804    -0.72400
O703        O  0.61510697  0.20488268  0.94198422    -0.72260
O704        O  0.59584550  0.28104569  0.06354852    -0.72270
O705        O  0.53372455  0.26293829  0.06252000    -0.72230
O706        O  0.55097739  0.19834933  0.93366057    -0.72250
O707        O  0.55199452  0.18696125  0.05201389    -0.72190
O708        O  0.53593947  0.27420978  0.94670643    -0.72380
V709        V  0.60528931  0.24279351  0.00361658     1.35240
V710        V  0.54443715  0.23069591  0.99902171     1.35170
C711        C  0.56601618  0.29194641  0.92624868     0.77060
C712        C  0.58534973  0.18163088  0.07741552     0.77110
C713        C  0.58513190  0.18966624  0.91613837     0.76980
C714        C  0.56077241  0.28397425  0.08337984     0.76940
C715        C  0.88332113  0.46863075  0.78439024    -0.02890
C716        C  0.88875569  0.46462113  0.22240255    -0.02890
C717        C  0.62049562  0.04066312  0.22300735    -0.02890
C718        C  0.62036054  0.04871882  0.78477472    -0.02890
C719        C  0.77405034  0.50347864  0.00445131     0.00160
C720        C  0.73042292  0.00579716  0.00471647     0.00160
O721        O  0.95907848  0.22788900  0.05252561    -0.72180
O722        O  0.94168370  0.31594615  0.94780609    -0.72400
O723        O  0.95012331  0.30707865  0.06498406    -0.72260
O724        O  0.95308597  0.23778545  0.93556221    -0.72270
O725        O  0.89054097  0.22310433  0.94816615    -0.72230
O726        O  0.88533914  0.30525360  0.06413874    -0.72250
O727        O  0.87850039  0.30223283  0.94448912    -0.72190
O728        O  0.89502356  0.22565306  0.06629143    -0.72380
V729        V  0.94985945  0.27193591  0.00025314     1.35240
V730        V  0.88837227  0.26412748  0.00579922     1.35170
C731        C  0.92954941  0.21324443  0.07922603     0.77060
C732        C  0.90716222  0.32319137  0.92717672     0.77110
C733        C  0.91743438  0.32005808  0.08400292     0.76980
C734        C  0.92311239  0.21782237  0.92137196     0.76940
O735        O  0.76669709  0.45526304  0.55730066    -0.72180
O736        O  0.69176800  0.44161896  0.43632559    -0.72400
O737        O  0.68984996  0.43964324  0.55353102    -0.72260
O738        O  0.76827224  0.45606734  0.43987344    -0.72270
O739        O  0.77764112  0.39160823  0.43297313    -0.72230
O740        O  0.70749266  0.37666777  0.55980332    -0.72250
O741        O  0.70081729  0.37680674  0.44164080    -0.72190
O742        O  0.78510402  0.39255951  0.55301985    -0.72380
V743        V  0.72966410  0.44694012  0.49682435     1.35240
V744        V  0.74275313  0.38542864  0.49694149     1.35170
C745        C  0.78833800  0.42684337  0.57611056     0.77060
C746        C  0.68196408  0.40702813  0.42085495     0.77110
C747        C  0.68467435  0.40491043  0.57472023     0.76980
C748        C  0.78409001  0.42674630  0.41489014     0.76940
C749        C  0.54142404  0.38495984  0.71059294    -0.02890
C750        C  0.53761267  0.38238163  0.28267679    -0.02890
C751        C  0.95845443  0.11668935  0.29232450    -0.02890
C752        C  0.95819387  0.11650605  0.72227137    -0.02890
C753        C  0.49610740  0.27592535  0.50165437     0.00160
C754        C  0.99305008  0.23219875  0.50382616     0.00160
O755        O  0.72999851  0.08781307  0.43684404    -0.72180
O756        O  0.80790093  0.10239652  0.55706704    -0.72400
O757        O  0.80917822  0.09484515  0.43600273    -0.72260
O758        O  0.72936489  0.09540176  0.55443827    -0.72270
O759        O  0.73969578  0.03122525  0.56820076    -0.72230
O760        O  0.81333803  0.02981969  0.44369286    -0.72250
O761        O  0.81700576  0.03765052  0.56251351    -0.72190
O762        O  0.73496115  0.02344643  0.45278956    -0.72380
V763        V  0.76948682  0.09411643  0.49606758     1.35240
V764        V  0.77619120  0.03188158  0.50629266     1.35170
C765        C  0.71868592  0.05262699  0.42651875     0.77060
C766        C  0.82445249  0.07211036  0.58170958     0.77110
C767        C  0.82420309  0.06197471  0.41896383     0.76980
C768        C  0.72196526  0.06307185  0.58177006     0.76940
C769        C  0.94615229  0.15267156  0.61406427    -0.09560
C770        C  0.97268670  0.14508392  0.66404988     0.06640
C771        C  0.00646622  0.17135480  0.66122902    -0.03330
C772        C  0.01415126  0.19838141  0.61048269    -0.07780
C773        C  0.98619313  0.20542531  0.56257399     0.05750
C774        C  0.95058990  0.18340277  0.56992851    -0.02800
Br775      Br  0.90100761  0.20265863  0.53661010    -0.02500
H776        H  0.91723500  0.13919030  0.61260869     0.09660
H777        H  0.54138220  0.21552547  0.61041282     0.07680
Br778      Br  0.04008065  0.17606585  0.72945949    -0.02920
C779        C  0.88185619  0.10829786  0.71506605    -0.09560
C780        C  0.92057692  0.09455747  0.69910172     0.06640
C781        C  0.92247100  0.06654805  0.65064568    -0.03330
C782        C  0.88757519  0.05255063  0.62599900    -0.07780
C783        C  0.85341842  0.07604558  0.62968650     0.05750
C784        C  0.85018468  0.10435277  0.67517806    -0.02800
Br785      Br  0.80627340  0.14162730  0.68136302    -0.02500
H786        H  0.87666400  0.12815745  0.75188431     0.09660
H787        H  0.88913403  0.02884846  0.59366075     0.07680
Br788      Br  0.96676089  0.05593534  0.59764743    -0.02920
C789        C  0.01020157  0.15226891  0.37200903    -0.09560
C790        C  0.97079289  0.14620708  0.34895705     0.06640
C791        C  0.94188366  0.17100867  0.37992792    -0.03330
C792        C  0.95246348  0.20469743  0.41486821    -0.07780
C793        C  0.98930811  0.20698189  0.44409492     0.05750
C794        C  0.01860963  0.17961651  0.42110278    -0.02800
Br795      Br  0.57112975  0.18042585  0.45437138    -0.02500
H796        H  0.03441458  0.13463653  0.35388336     0.09660
H797        H  0.92907477  0.22490734  0.42891398     0.07680
Br798      Br  0.89226202  0.15128995  0.41100660    -0.02920
C799        C  0.85187794  0.07532136  0.31760841    -0.09560
C800        C  0.85709604  0.06174395  0.37674308     0.06640
C801        C  0.89558851  0.05477751  0.39885352    -0.03330
C802        C  0.92759150  0.07082931  0.36856028    -0.07780
C803        C  0.92232702  0.09206774  0.31367400     0.05750
C804        C  0.88489737  0.08746763  0.28398319    -0.02800
Br805      Br  0.87640251  0.09250490  0.19912298    -0.02500
H806        H  0.82225664  0.07686738  0.29798959     0.09660
H807        H  0.95609914  0.07038876  0.39159638     0.07680
Br808      Br  0.90571115  0.03072886  0.47534104    -0.02920
C809        C  0.53044510  0.28955008  0.40139496    -0.09560
C810        C  0.49941496  0.29893451  0.43990720     0.06640
C811        C  0.47691115  0.33422307  0.42281972    -0.03330
C812        C  0.48826938  0.36000564  0.37330278    -0.07780
C813        C  0.52077679  0.35151086  0.33527083     0.05750
C814        C  0.53986955  0.31306327  0.35005406    -0.02800
Br815      Br  0.57778073  0.28489073  0.30285744    -0.02500
H816        H  0.54844274  0.26321321  0.41190639     0.09660
H817        H  0.47158591  0.38700271  0.36454988     0.07680
Br818      Br  0.43053295  0.34895663  0.46729843    -0.02920
C819        C  0.51676173  0.34449478  0.54950207    -0.09560
C820        C  0.50167012  0.30485709  0.55725047     0.06640
C821        C  0.48903903  0.29751445  0.61656641    -0.03330
C822        C  0.50221481  0.32129424  0.66555699    -0.07780
C823        C  0.51631331  0.36154227  0.65847702     0.05750
C824        C  0.51875325  0.37328959  0.59629072    -0.02800
Br825      Br  0.53133870  0.42685433  0.57042373    -0.02500
H826        H  0.52642559  0.35460432  0.50594232     0.09660
H827        H  0.49946646  0.30760555  0.70919664     0.07680
Br828      Br  0.93758452  0.27681963  0.62714076    -0.02920
C829        C  0.57858597  0.41358872  0.36250213    -0.09560
C830        C  0.57975192  0.39066767  0.30942141     0.06640
C831        C  0.61815368  0.37335917  0.29408384    -0.03330
C832        C  0.65048612  0.37840523  0.33267476    -0.07780
C833        C  0.64774443  0.40256492  0.38237275     0.05750
C834        C  0.61199344  0.42160199  0.39618702    -0.02800
Br835      Br  0.60577472  0.45604517  0.46403555    -0.02500
H836        H  0.55090848  0.42376264  0.38139125     0.09660
H837        H  0.67869849  0.36383170  0.32335950     0.07680
Br838      Br  0.63529036  0.34113006  0.22712998    -0.02920
C839        C  0.63874741  0.42866497  0.65011272    -0.09560
C840        C  0.65157104  0.39759220  0.61352688     0.06640
C841        C  0.63207015  0.36053890  0.61434254    -0.03330
C842        C  0.59828814  0.35669099  0.64841167    -0.07780
C843        C  0.58210687  0.38978962  0.67982747     0.05750
C844        C  0.60693675  0.42280277  0.68783018    -0.02800
Br845      Br  0.61731487  0.44005493  0.76585743    -0.02500
H846        H  0.65627440  0.45564689  0.65448882     0.09660
H847        H  0.58375160  0.32781451  0.64882383     0.07680
Br848      Br  0.64692570  0.31514155  0.56667910    -0.02920
C849        C  0.97636605  0.14311942  0.18932934    -0.09560
C850        C  0.94995191  0.14505571  0.23833561     0.06640
C851        C  0.91742220  0.17342276  0.23260197    -0.03330
C852        C  0.91221427  0.19514117  0.17993896    -0.07780
C853        C  0.93499897  0.18692991  0.13021824     0.05750
C854        C  0.96559987  0.15876826  0.13405444    -0.02800
Br855      Br  0.98584685  0.13293557  0.06536295    -0.02500
H856        H  0.00438555  0.12692347  0.19135246     0.09660
H857        H  0.88886493  0.21792094  0.17677670     0.07680
Br858      Br  0.87271546  0.18339019  0.28272645    -0.02920
C859        C  0.93351106  0.20879277  0.81642081    -0.09560
C860        C  0.92674369  0.19130198  0.87197238     0.06640
C861        C  0.92539223  0.14970667  0.87892251    -0.03330
C862        C  0.93565349  0.12587634  0.83068906    -0.07780
C863        C  0.94643352  0.14338116  0.77496018     0.05750
C864        C  0.93690140  0.18474894  0.76703584    -0.02800
Br865      Br  0.90135750  0.20367728  0.70553798    -0.02500
H866        H  0.92984916  0.24103788  0.81040356     0.09660
H867        H  0.93293360  0.09386581  0.83666086     0.07680
Br868      Br  0.91216899  0.12472208  0.95371229    -0.02920
C869        C  0.68464865  0.03785973  0.73040038    -0.09560
C870        C  0.64446438  0.04989332  0.72726410     0.06640
C871        C  0.62925012  0.06416408  0.67029785    -0.03330
C872        C  0.65490278  0.06753201  0.62201886    -0.07780
C873        C  0.69538774  0.06159837  0.63096591     0.05750
C874        C  0.71028787  0.04866075  0.68599360    -0.02800
Br875      Br  0.76526384  0.05139957  0.70618261    -0.02500
H876        H  0.69820218  0.02361450  0.76918869     0.09660
H877        H  0.64375877  0.07757825  0.57865412     0.07680
Br878      Br  0.57823987  0.08901739  0.65434556    -0.02920
C879        C  0.70407852  0.05167877  0.91989371    -0.09560
C880        C  0.70564774  0.01311244  0.94507769     0.06640
C881        C  0.68001552  0.98536628  0.91557704    -0.03330
C882        C  0.64898360  0.99847984  0.87430304    -0.07780
C883        C  0.64925490  0.03634310  0.84393591     0.05750
C884        C  0.68092717  0.06178254  0.86782644    -0.02800
Br885      Br  0.70394413  0.10781234  0.83036916    -0.02500
H886        H  0.72409998  0.07375040  0.93834731     0.09660
H887        H  0.62616805  0.97746608  0.86403047     0.07680
Br888      Br  0.69436761  0.42946092  0.91216789    -0.02920
C889        C  0.62798194  0.05933636  0.33153157    -0.09560
C890        C  0.64238869  0.03833018  0.28188789     0.06640
C891        C  0.67335397  0.00978756  0.29263469    -0.03330
C892        C  0.69820231  0.01497299  0.34100964    -0.07780
C893        C  0.68928373  0.04452085  0.38229929     0.05750
C894        C  0.65219204  0.06369860  0.38154814    -0.02800
Br895      Br  0.63415255  0.09531261  0.44704028    -0.02500
H896        H  0.59947722  0.07490968  0.32946268     0.09660
H897        H  0.72459095  0.99610832  0.34614806     0.07680
Br898      Br  0.68109659  0.96072354  0.24993958    -0.02920
C899        C  0.71336144  0.04058349  0.10657375    -0.09560
C900        C  0.70400062  0.01158149  0.06300284     0.06640
C901        C  0.66726767  0.99105977  0.07529324    -0.03330
C902        C  0.64189312  0.00101191  0.12399767    -0.07780
C903        C  0.65177818  0.02796265  0.16950140     0.05750
C904        C  0.68920119  0.04807285  0.15833579    -0.02800
Br905      Br  0.71022800  0.08796594  0.21051395    -0.02500
H906        H  0.74015949  0.05796423  0.10050292     0.09660
H907        H  0.61258145  0.98881643  0.12424299     0.07680
Br908      Br  0.65031141  0.44367023  0.03650692    -0.02920
C909        C  0.83033333  0.42831590  0.26659044    -0.09560
C910        C  0.86384985  0.45294479  0.27747292     0.06640
C911        C  0.87297655  0.46122667  0.33888247    -0.03330
C912        C  0.84350512  0.45680671  0.38064041    -0.07780
C913        C  0.81033418  0.43439256  0.36738266     0.05750
C914        C  0.80391945  0.41873685  0.31100024    -0.02800
Br915      Br  0.75955240  0.38542831  0.29185153    -0.02500
H916        H  0.82461450  0.41624634  0.22258669     0.09660
H917        H  0.84949652  0.46412753  0.42705444     0.07680
Br918      Br  0.92180739  0.44835692  0.38163031    -0.02920
C919        C  0.81690323  0.48553248  0.17150475    -0.09560
C920        C  0.85970157  0.48722481  0.16923586     0.06640
C921        C  0.87123918  0.50357167  0.11108736    -0.03330
C922        C  0.84327942  0.50970424  0.06192941    -0.07780
C923        C  0.80213746  0.49916094  0.06301019     0.05750
C924        C  0.79126063  0.48332306  0.12000589    -0.02800
Br925      Br  0.75008949  0.94435932  0.12834582    -0.02500
H926        H  0.80175134  0.48274959  0.21344337     0.09660
H927        H  0.85498028  0.52269956  0.02143609     0.07680
Br928      Br  0.92170341  0.52801918  0.09370275    -0.02920
C929        C  0.89930740  0.35023471  0.18023737    -0.09560
C930        C  0.91701164  0.35381917  0.12467134     0.06640
C931        C  0.93478205  0.39009807  0.10876172    -0.03330
C932        C  0.92449254  0.42453638  0.13944595    -0.07780
C933        C  0.90359853  0.42338508  0.19426613     0.05750
C934        C  0.89752881  0.38322403  0.21812941    -0.02800
Br935      Br  0.89467280  0.36633214  0.30081001    -0.02500
H936        H  0.89023784  0.32081778  0.19617295     0.09660
H937        H  0.93435097  0.45184836  0.11943289     0.07680
Br938      Br  0.97548844  0.39427988  0.04924487    -0.02920
C939        C  0.82077483  0.47104500  0.71861385    -0.09560
C940        C  0.86154087  0.46121618  0.72345233     0.06640
C941        C  0.87836581  0.44006809  0.67361795    -0.03330
C942        C  0.85443417  0.42881698  0.62524322    -0.07780
C943        C  0.81360624  0.43473574  0.62719235     0.05750
C944        C  0.79664955  0.45407502  0.67562960    -0.02800
Br945      Br  0.74037432  0.45159241  0.69009904    -0.02500
H946        H  0.80551531  0.48761391  0.75235086     0.09660
H947        H  0.86743198  0.41397907  0.58705009     0.07680
Br948      Br  0.93091463  0.41870111  0.66799629    -0.02920
C949        C  0.79689125  0.46473373  0.91207287    -0.09560
C950        C  0.79745838  0.50065781  0.94292737     0.06640
C951        C  0.82252544  0.53054230  0.91592063    -0.03330
C952        C  0.84926896  0.52212031  0.86599355    -0.07780
C953        C  0.85015809  0.48434385  0.83588092     0.05750
C954        C  0.81859975  0.45775902  0.85873820    -0.02800
Br955      Br  0.79622339  0.41143965  0.82030784    -0.02500
H956        H  0.77783758  0.44135176  0.92935575     0.09660
H957        H  0.86919352  0.54542977  0.85080109     0.07680
Br958      Br  0.81865523  0.08416844  0.94463469    -0.02920
C959        C  0.91447397  0.39390129  0.90990138    -0.09560
C960        C  0.90038118  0.35791534  0.88885002     0.06640
C961        C  0.88153365  0.35627099  0.83294722    -0.03330
C962        C  0.88054314  0.39076887  0.79634371    -0.07780
C963        C  0.89419969  0.42849098  0.81727650     0.05750
C964        C  0.91082798  0.42899547  0.87696231    -0.02800
Br965      Br  0.92371761  0.47539281  0.92490336    -0.02500
H966        H  0.92642205  0.39505108  0.95457703     0.09660
H967        H  0.86636748  0.38755142  0.75331203     0.07680
Br968      Br  0.86151332  0.30692913  0.80172515    -0.02920
C969        C  0.61564212  0.16224825  0.82452303    -0.09560
C970        C  0.58841331  0.15933567  0.87084005     0.06640
C971        C  0.56496989  0.12524557  0.87574012    -0.03330
C972        C  0.57824082  0.09092556  0.85009725    -0.07780
C973        C  0.60550505  0.09110156  0.80257862     0.05750
C974        C  0.62110806  0.12998449  0.78551717    -0.02800
Br975      Br  0.65293385  0.14536351  0.71730213    -0.02500
H976        H  0.63148631  0.19011705  0.81750622     0.09660
H977        H  0.56856466  0.06416677  0.87264200     0.07680
Br978      Br  0.51708104  0.12051680  0.92103821    -0.02920
C979        C  0.60333719  0.15559616  0.17826304    -0.09560
C980        C  0.59124054  0.14893446  0.11942855     0.06640
C981        C  0.58714568  0.11034888  0.09925794    -0.03330
C982        C  0.58946893  0.07913450  0.13907687    -0.07780
C983        C  0.60679796  0.08268524  0.19707500     0.05750
C984        C  0.61357423  0.12326657  0.21676071    -0.02800
Br985      Br  0.63919313  0.14252713  0.28794662    -0.02500
H986        H  0.60750395  0.18626052  0.19267764     0.09660
H987        H  0.58386563  0.05051666  0.11917055     0.07680
Br988      Br  0.59036019  0.09694899  0.01657019    -0.02920
C989        C  0.51308000  0.32815281  0.21559218    -0.09560
C990        C  0.53738766  0.36174178  0.22307877     0.06640
C991        C  0.55972726  0.37531463  0.17315765    -0.03330
C992        C  0.56527072  0.35005975  0.12541707    -0.07780
C993        C  0.55006923  0.31161501  0.12841561     0.05750
C994        C  0.52246525  0.30091640  0.17235573    -0.02800
Br995      Br  0.50387711  0.24738207  0.18495300    -0.02500
H996        H  0.49075558  0.31964993  0.24786852     0.09660
H997        H  0.58444435  0.35899546  0.08882046     0.07680
Br998      Br  0.59176196  0.42207716  0.17120607    -0.02920
C999        C  0.52365732  0.32995584  0.85776660    -0.09560
C1000       C  0.56200412  0.31967226  0.87666404     0.06640
C1001       C  0.59488857  0.33043508  0.84173863    -0.03330
C1002       C  0.58810409  0.34862462  0.78696428    -0.07780
C1003       C  0.54912980  0.35936826  0.76689059     0.05750
C1004       C  0.51742470  0.34961691  0.80404623    -0.02800
Br1005     Br  0.46473304  0.35994871  0.78173377    -0.02500
H1006       H  0.49814907  0.32126439  0.88357950     0.09660
H1007       H  0.61462745  0.35474298  0.76180674     0.07680
Br1008     Br  0.65012293  0.32114940  0.86306720    -0.02920
O1009       O  0.94404172  0.99763855  0.71622575    -0.72180
O1010       O  0.56449171  0.51591899  0.71636435    -0.72400
O1011       O  0.51296707  0.95161306  0.69356008    -0.71980
O1012       O  0.00152783  0.56157269  0.70663709    -0.72270
O1013       O  0.98560830  0.55902267  0.79781227    -0.72230
O1014       O  0.52310295  0.94256371  0.78776708    -0.72250
O1015       O  0.55839544  0.51520409  0.81127536    -0.72190
O1016       O  0.95234306  0.98548865  0.80889358    -0.72380
V1017       V  0.00525071  0.00609347  0.70978038     1.35240
V1018       V  0.50528546  0.50063746  0.80016226     1.35170
C1019       C  0.92750606  0.98765403  0.76791400     0.77060
C1020       C  0.58027172  0.52369683  0.76882612     0.77110
C1021       C  0.52426439  0.92785805  0.73328361     0.76980
C1022       C  0.98565223  0.57955554  0.74691991     0.76940
O1023       O  0.94464346  0.99640212  0.29288546    -0.72180
O1024       O  0.56413868  0.51028712  0.29179058    -0.72400
O1025       O  0.00119925  0.55861470  0.31060443    -0.72260
O1026       O  0.50866800  0.94714961  0.30941936    -0.72270
O1027       O  0.51688661  0.94486501  0.21479003    -0.72230
O1028       O  0.98464200  0.56163506  0.21793333    -0.72250
O1029       O  0.55510614  0.51682001  0.19714983    -0.72190
O1030       O  0.95098667  0.99052207  0.19945917    -0.72380
V1031       V  0.00457743  0.00300214  0.29978962     1.35240
V1032       V  0.50249347  0.50378430  0.20897411     1.35170
C1033       C  0.92863202  0.98700077  0.24142239     0.77060
C1034       C  0.57906469  0.51901379  0.23890138     0.77110
C1035       C  0.98565658  0.57924348  0.27044634     0.76980
C1036       C  0.51800649  0.92594142  0.26683292     0.76940
O1037       O  0.59991280  0.78274220  0.94593877    -0.72180
O1038       O  0.61400471  0.70350934  0.06324816    -0.72400
O1039       O  0.61511123  0.70487862  0.94198427    -0.72260
O1040       O  0.59584806  0.78104862  0.06353867    -0.72270
O1041       O  0.53372929  0.76293393  0.06251956    -0.72230
O1042       O  0.55098101  0.69835854  0.93364358    -0.72250
O1043       O  0.55199692  0.68695768  0.05199456    -0.72190
O1044       O  0.53594491  0.77421791  0.94670856    -0.72380
V1045       V  0.60529299  0.74279316  0.00361155     1.35240
V1046       V  0.54444090  0.73069809  0.99901298     1.35170
C1047       C  0.56602279  0.79195012  0.92624611     0.77060
C1048       C  0.58534943  0.68162962  0.07740546     0.77110
C1049       C  0.58513596  0.68966841  0.91613033     0.76980
C1050       C  0.56077589  0.78397366  0.08337498     0.76940
C1051       C  0.88333170  0.96863462  0.78438860    -0.02890
C1052       C  0.88876928  0.96461979  0.22240523    -0.02890
C1053       C  0.62048305  0.54066234  0.22300202    -0.02890
C1054       C  0.62034999  0.54871625  0.78476653    -0.02890
C1055       C  0.77406254  0.00347717  0.00445501     0.00160
C1056       C  0.73041069  0.50579747  0.00471160     0.00160
O1057       O  0.95907903  0.72788835  0.05252103    -0.72180
O1058       O  0.94169132  0.81594597  0.94780058    -0.72400
O1059       O  0.95013114  0.80707867  0.06497857    -0.72260
O1060       O  0.95308623  0.73778423  0.93555724    -0.72270
O1061       O  0.89053954  0.72311017  0.94816148    -0.72230
O1062       O  0.88534678  0.80525832  0.06413627    -0.72250
O1063       O  0.87850644  0.80223935  0.94448668    -0.72190
O1064       O  0.89502384  0.72565731  0.06628662    -0.72380
V1065       V  0.94986348  0.77193551  0.00024802     1.35240
V1066       V  0.88837551  0.76413277  0.00579555     1.35170
C1067       C  0.92954876  0.71324623  0.07922147     0.77060
C1068       C  0.90717018  0.82319454  0.92717263     0.77110
C1069       C  0.91744352  0.82005999  0.08399968     0.76980
C1070       C  0.92311022  0.71782472  0.92136688     0.76940
O1071       O  0.76670463  0.95526445  0.55729662    -0.72180
O1072       O  0.69177762  0.94161273  0.43632094    -0.72400
O1073       O  0.68985870  0.93963976  0.55352609    -0.72260
O1074       O  0.76828048  0.95606596  0.43986915    -0.72270
O1075       O  0.77765444  0.89160711  0.43297458    -0.72230
O1076       O  0.70750297  0.87666482  0.55980073    -0.72250
O1077       O  0.70083093  0.87680112  0.44163781    -0.72190
O1078       O  0.78511399  0.89256143  0.55302171    -0.72380
V1079       V  0.72967268  0.94693759  0.49681999     1.35240
V1080       V  0.74276497  0.88542670  0.49694087     1.35170
C1081       C  0.78834643  0.92684638  0.57610970     0.77060
C1082       C  0.68197579  0.90702112  0.42085121     0.77110
C1083       C  0.68468365  0.90490705  0.57471605     0.76980
C1084       C  0.78410100  0.92674512  0.41488915     0.76940
C1085       C  0.54143223  0.88496007  0.71058824    -0.02890
C1086       C  0.53762133  0.88237940  0.28267595    -0.02890
C1087       C  0.95844643  0.61669054  0.29232040    -0.02890
C1088       C  0.95818323  0.61650555  0.72226696    -0.02890
C1089       C  0.49610964  0.77592352  0.50165162     0.00160
C1090       C  0.99304918  0.73219699  0.50382313     0.00160
O1091       O  0.72998859  0.58781477  0.43683755    -0.72180
O1092       O  0.80788796  0.60239580  0.55706643    -0.72400
O1093       O  0.80916816  0.59484833  0.43600116    -0.72260
O1094       O  0.72935164  0.59539918  0.55443221    -0.72270
O1095       O  0.73968244  0.53122208  0.56818794    -0.72230
O1096       O  0.81333028  0.52982287  0.44368873    -0.72250
O1097       O  0.81699297  0.53764974  0.56251034    -0.72190
O1098       O  0.73495372  0.52344772  0.45277661    -0.72380
V1099       V  0.76947535  0.59411687  0.49606395     1.35240
V1100       V  0.77618090  0.53188182  0.50628465     1.35170
C1101       C  0.71867782  0.55262869  0.42650808     0.77060
C1102       C  0.82443941  0.57210923  0.58170819     0.77110
C1103       C  0.82419436  0.56197870  0.41896139     0.76980
C1104       C  0.72195094  0.56306768  0.58175908     0.76940
C1105       C  0.94614424  0.65267310  0.61406096    -0.09560
C1106       C  0.97267802  0.64508317  0.66404649     0.06640
C1107       C  0.00645953  0.67135151  0.66122646    -0.03330
C1108       C  0.01414726  0.69837718  0.61047990    -0.07780
C1109       C  0.98619006  0.70542325  0.56257044     0.05750
C1110       C  0.95058476  0.68340381  0.56992486    -0.02800
Br1111     Br  0.90100418  0.70266467  0.53660678    -0.02500
H1112       H  0.91722579  0.63919399  0.61260585     0.09660
H1113       H  0.54137952  0.71551913  0.61041067     0.07680
Br1114     Br  0.04007332  0.67606035  0.72945851    -0.02920
C1115       C  0.88184514  0.60829587  0.71506389    -0.09560
C1116       C  0.92056597  0.59455773  0.69909614     0.06640
C1117       C  0.92245992  0.56654898  0.65063931    -0.03330
C1118       C  0.88756405  0.55255111  0.62599306    -0.07780
C1119       C  0.85340600  0.57604379  0.62968480     0.05750
C1120       C  0.85017202  0.60434906  0.67517900    -0.02800
Br1121     Br  0.80625681  0.64161791  0.68137299    -0.02500
H1122       H  0.87665326  0.62815417  0.75188382     0.09660
H1123       H  0.88912305  0.52885002  0.59365316     0.07680
Br1124     Br  0.96675000  0.55593718  0.59764114    -0.02920
C1125       C  0.01019592  0.65226745  0.37200420    -0.09560
C1126       C  0.97078671  0.64620743  0.34895304     0.06640
C1127       C  0.94187885  0.67101019  0.37992472    -0.03330
C1128       C  0.95246056  0.70469821  0.41486529    -0.07780
C1129       C  0.98930554  0.70698082  0.44409142     0.05750
C1130       C  0.01860565  0.67961441  0.42109813    -0.02800
Br1131     Br  0.57112620  0.68042182  0.45436518    -0.02500
H1132       H  0.03440802  0.63463420  0.35387770     0.09660
H1133       H  0.92907297  0.72490936  0.42891118     0.07680
Br1134     Br  0.89225600  0.65129410  0.41100302    -0.02920
C1135       C  0.85186845  0.57532764  0.31760648    -0.09560
C1136       C  0.85708700  0.56174927  0.37674055     0.06640
C1137       C  0.89557940  0.55478081  0.39884960    -0.03330
C1138       C  0.92758250  0.57083177  0.36855600    -0.07780
C1139       C  0.92231811  0.59207083  0.31367026     0.05750
C1140       C  0.88488785  0.58747278  0.28398047    -0.02800
Br1141     Br  0.87639191  0.59251077  0.19912059    -0.02500
H1142       H  0.82224692  0.57687484  0.29798858     0.09660
H1143       H  0.95609047  0.57038962  0.39159119     0.07680
Br1144     Br  0.90570234  0.53072951  0.47533518    -0.02920
C1145       C  0.53044856  0.78954680  0.40139182    -0.09560
C1146       C  0.49941858  0.79893235  0.43990404     0.06640
C1147       C  0.47691611  0.83422166  0.42281614    -0.03330
C1148       C  0.48827614  0.86000435  0.37330024    -0.07780
C1149       C  0.52078341  0.85150857  0.33526865     0.05750
C1150       C  0.53987424  0.81305994  0.35005116    -0.02800
Br1151     Br  0.57778451  0.78488684  0.30285360    -0.02500
H1152       H  0.54844506  0.76320912  0.41190295     0.09660
H1153       H  0.47159421  0.88700232  0.36454755     0.07680
Br1154     Br  0.43053772  0.84895618  0.46729375    -0.02920
C1155       C  0.51676516  0.84449357  0.54949832    -0.09560
C1156       C  0.50167412  0.80485552  0.55724770     0.06640
C1157       C  0.48904782  0.79751203  0.61656599    -0.03330
C1158       C  0.50222598  0.82129211  0.66555457    -0.07780
C1159       C  0.51632147  0.86154118  0.65847353     0.05750
C1160       C  0.51875885  0.87328834  0.59628709    -0.02800
Br1161     Br  0.53134215  0.92685335  0.57041950    -0.02500
H1162       H  0.52642721  0.85460355  0.50593794     0.09660
H1163       H  0.49948211  0.80760237  0.70919426     0.07680
Br1164     Br  0.93759637  0.77681286  0.62715293    -0.02920
C1165       C  0.57859612  0.91358014  0.36250463    -0.09560
C1166       C  0.57976121  0.89066195  0.30942125     0.06640
C1167       C  0.61816253  0.87335340  0.29408121    -0.03330
C1168       C  0.65049602  0.87839836  0.33267102    -0.07780
C1169       C  0.64775510  0.90255608  0.38237139     0.05750
C1170       C  0.61200396  0.92159166  0.39618935    -0.02800
Br1171     Br  0.60578577  0.95603153  0.46404169    -0.02500
H1172       H  0.55091882  0.92375335  0.38139542     0.09660
H1173       H  0.67870846  0.86382585  0.32335283     0.07680
Br1174     Br  0.63529658  0.84112470  0.22712560    -0.02920
C1175       C  0.63875471  0.92866376  0.65010303    -0.09560
C1176       C  0.65157989  0.89758917  0.61352203     0.06640
C1177       C  0.63207959  0.86053554  0.61434113    -0.03330
C1178       C  0.59829661  0.85668898  0.64840896    -0.07780
C1179       C  0.58211490  0.88978875  0.67982179     0.05750
C1180       C  0.60694398  0.92280290  0.68782036    -0.02800
Br1181     Br  0.61732363  0.94005767  0.76584521    -0.02500
H1182       H  0.65628118  0.95564625  0.65447675     0.09660
H1183       H  0.58376026  0.82781243  0.64882340     0.07680
Br1184     Br  0.64693813  0.81513563  0.56668518    -0.02920
C1185       C  0.97636071  0.64311983  0.18932645    -0.09560
C1186       C  0.94994578  0.64505725  0.23833164     0.06640
C1187       C  0.91741745  0.67342572  0.23259721    -0.03330
C1188       C  0.91221084  0.69514382  0.17993368    -0.07780
C1189       C  0.93499620  0.68693165  0.13021387     0.05750
C1190       C  0.96559625  0.65876920  0.13405133    -0.02800
Br1191     Br  0.98584524  0.63293731  0.06536056    -0.02500
H1192       H  0.00437941  0.62692241  0.19135057     0.09660
H1193       H  0.88886233  0.71792441  0.17677058     0.07680
Br1194     Br  0.87271173  0.68339626  0.28272241    -0.02920
C1195       C  0.93350167  0.70879363  0.81641381    -0.09560
C1196       C  0.92673796  0.69130386  0.87196726     0.06640
C1197       C  0.92538616  0.64970866  0.87891912    -0.03330
C1198       C  0.93564484  0.62587743  0.83068554    -0.07780
C1199       C  0.94642299  0.64338125  0.77495515     0.05750
C1200       C  0.93688962  0.68474870  0.76702946    -0.02800
Br1201     Br  0.90134286  0.70367490  0.70553321    -0.02500
H1202       H  0.92983941  0.74103858  0.81039558     0.09660
H1203       H  0.93292438  0.59386710  0.83665877     0.07680
Br1204     Br  0.91216480  0.62472533  0.95371073    -0.02920
C1205       C  0.68463332  0.53784620  0.73038508    -0.09560
C1206       C  0.64445116  0.54988711  0.72725340     0.06640
C1207       C  0.62923638  0.56416029  0.67028880    -0.03330
C1208       C  0.65488826  0.56752824  0.62200881    -0.07780
C1209       C  0.69537291  0.56159114  0.63095397     0.05750
C1210       C  0.71027276  0.54864778  0.68597888    -0.02800
Br1211     Br  0.76524900  0.55138491  0.70616700    -0.02500
H1212       H  0.69818552  0.52359677  0.76917122     0.09660
H1213       H  0.64374427  0.57757774  0.57864574     0.07680
Br1214     Br  0.57822658  0.58901534  0.65434042    -0.02920
C1215       C  0.70407536  0.55167428  0.91987484    -0.09560
C1216       C  0.70563577  0.51311123  0.94507162     0.06640
C1217       C  0.67999654  0.48536706  0.91558029    -0.03330
C1218       C  0.64896552  0.49848230  0.87430604    -0.07780
C1219       C  0.64924576  0.53634060  0.84392582     0.05750
C1220       C  0.68092461  0.56177610  0.86780594    -0.02800
Br1221     Br  0.70394844  0.60779677  0.83033313    -0.02500
H1222       H  0.72410242  0.57374389  0.93832000     0.09660
H1223       H  0.62614449  0.47747237  0.86404115     0.07680
Br1224     Br  0.69438808  0.92946024  0.91217233    -0.02920
C1225       C  0.62797073  0.55933336  0.33152693    -0.09560
C1226       C  0.64237720  0.53832884  0.28188165     0.06640
C1227       C  0.67334485  0.50978837  0.29262535    -0.03330
C1228       C  0.69819504  0.51497573  0.34099757    -0.07780
C1229       C  0.68927596  0.54452282  0.38228820     0.05750
C1230       C  0.65218245  0.56369692  0.38154140    -0.02800
Br1231     Br  0.63414229  0.59530693  0.44703718    -0.02500
H1232       H  0.59946493  0.57490473  0.32946077     0.09660
H1233       H  0.72458489  0.49611252  0.34613403     0.07680
Br1234     Br  0.68108812  0.46072426  0.24993084    -0.02920
C1235       C  0.71334774  0.54058528  0.10656671    -0.09560
C1236       C  0.70398838  0.51158156  0.06299776     0.06640
C1237       C  0.66725697  0.49105778  0.07528995    -0.03330
C1238       C  0.64188092  0.50101141  0.12399182    -0.07780
C1239       C  0.65176525  0.52796275  0.16949510     0.05750
C1240       C  0.68918747  0.54807430  0.15832872    -0.02800
Br1241     Br  0.71021260  0.58796939  0.21050514    -0.02500
H1242       H  0.74014487  0.55796728  0.10049470     0.09660
H1243       H  0.61256937  0.48881574  0.12423607     0.07680
Br1244     Br  0.65031372  0.94368022  0.03649678    -0.02920
C1245       C  0.83034648  0.92831431  0.26659132    -0.09560
C1246       C  0.86386299  0.95294302  0.27747498     0.06640
C1247       C  0.87298859  0.96122524  0.33888485    -0.03330
C1248       C  0.84351645  0.95680552  0.38064162    -0.07780
C1249       C  0.81034571  0.93439153  0.36738265     0.05750
C1250       C  0.80393177  0.91873567  0.31100018    -0.02800
Br1251     Br  0.75956445  0.88542772  0.29185043    -0.02500
H1252       H  0.82462813  0.91624496  0.22258730     0.09660
H1253       H  0.84950698  0.96412650  0.42705584     0.07680
Br1254     Br  0.92181851  0.94835608  0.38163546    -0.02920
C1255       C  0.81691687  0.98553204  0.17150804    -0.09560
C1256       C  0.85971523  0.98722301  0.16923786     0.06640
C1257       C  0.87125254  0.00356871  0.11108832    -0.03330
C1258       C  0.84329228  0.00970133  0.06193102    -0.07780
C1259       C  0.80215015  0.99915898  0.06301329     0.05750
C1260       C  0.79127357  0.98332231  0.12000994    -0.02800
Br1261     Br  0.75007815  0.44435818  0.12833856    -0.02500
H1262       H  0.80176556  0.98275019  0.21344733     0.09660
H1263       H  0.85499268  0.02269628  0.02143701     0.07680
Br1264     Br  0.92171664  0.02801568  0.09370085    -0.02920
C1265       C  0.89931985  0.85023447  0.18023698    -0.09560
C1266       C  0.91702385  0.85381961  0.12467081     0.06640
C1267       C  0.93479624  0.89009790  0.10876342    -0.03330
C1268       C  0.92450893  0.92453582  0.13945024    -0.07780
C1269       C  0.90361339  0.92338419  0.19426908     0.05750
C1270       C  0.89754229  0.88322300  0.21813057    -0.02800
Br1271     Br  0.89468489  0.86633009  0.30081057    -0.02500
H1272       H  0.89024897  0.82081760  0.19617100     0.09660
H1273       H  0.93436928  0.95184759  0.11943918     0.07680
Br1274     Br  0.97550059  0.89427958  0.04924351    -0.02920
C1275       C  0.82078541  0.97105243  0.71861139    -0.09560
C1276       C  0.86155098  0.96122121  0.72345045     0.06640
C1277       C  0.87837503  0.94007233  0.67361624    -0.03330
C1278       C  0.85444272  0.92882090  0.62524238    -0.07780
C1279       C  0.81361502  0.93474204  0.62719049     0.05750
C1280       C  0.79665921  0.95408442  0.67562602    -0.02800
Br1281     Br  0.74038333  0.95160758  0.69009305    -0.02500
H1282       H  0.80552687  0.98762162  0.75234907     0.09660
H1283       H  0.86743988  0.91398111  0.58705039     0.07680
Br1284     Br  0.93092381  0.91870510  0.66799373    -0.02920
C1285       C  0.79690458  0.96473340  0.91207489    -0.09560
C1286       C  0.79747021  0.00065729  0.94293020     0.06640
C1287       C  0.82253542  0.03054312  0.91592294    -0.03330
C1288       C  0.84927904  0.02212269  0.86599507    -0.07780
C1289       C  0.85016882  0.98434676  0.83588060     0.05750
C1290       C  0.81861113  0.95776112  0.85873752    -0.02800
Br1291     Br  0.79623233  0.91144492  0.82030202    -0.02500
H1292       H  0.77785308  0.94134994  0.92935837     0.09660
H1293       H  0.86920261  0.04543308  0.85080288     0.07680
Br1294     Br  0.81864903  0.58416808  0.94463194    -0.02920
C1295       C  0.91448723  0.89390353  0.90989618    -0.09560
C1296       C  0.90039174  0.85791851  0.88884559     0.06640
C1297       C  0.88154210  0.85627523  0.83294435    -0.03330
C1298       C  0.88055248  0.89077300  0.79634091    -0.07780
C1299       C  0.89421028  0.92849449  0.81727367     0.05750
C1300       C  0.91083998  0.92899819  0.87695874    -0.02800
Br1301     Br  0.92372911  0.97539486  0.92490177    -0.02500
H1302       H  0.92643731  0.89505249  0.95457078     0.09660
H1303       H  0.86637575  0.88755618  0.75330990     0.07680
Br1304     Br  0.86151719  0.80693475  0.80172410    -0.02920
C1305       C  0.61564511  0.66224554  0.82451706    -0.09560
C1306       C  0.58841627  0.65933613  0.87083442     0.06640
C1307       C  0.56496870  0.62524897  0.87573453    -0.03330
C1308       C  0.57823439  0.59092756  0.85008960    -0.07780
C1309       C  0.60549810  0.59110048  0.80257012     0.05750
C1310       C  0.62110600  0.62998159  0.78550997    -0.02800
Br1311     Br  0.65292631  0.64535896  0.71728847    -0.02500
H1312       H  0.63149192  0.69011270  0.81749942     0.09660
H1313       H  0.56855451  0.56417013  0.87263380     0.07680
Br1314     Br  0.51707931  0.62052684  0.92103319    -0.02920
C1315       C  0.60333071  0.65559534  0.17825540    -0.09560
C1316       C  0.59123727  0.64893337  0.11941953     0.06640
C1317       C  0.58713927  0.61034779  0.09925050    -0.03330
C1318       C  0.58945705  0.57913426  0.13907152    -0.07780
C1319       C  0.60678541  0.58268465  0.19707030     0.05750
C1320       C  0.61356275  0.62326580  0.21675590    -0.02800
Br1321     Br  0.63917521  0.64252609  0.28794706    -0.02500
H1322       H  0.60749833  0.68625968  0.19266959     0.09660
H1323       H  0.58385223  0.55051646  0.11916589     0.07680
Br1324     Br  0.59035681  0.59694566  0.01656369    -0.02920
C1325       C  0.51308508  0.82815346  0.21558891    -0.09560
C1326       C  0.53739474  0.86174085  0.22307668     0.06640
C1327       C  0.55973448  0.87531348  0.17315553    -0.03330
C1328       C  0.56527614  0.85005904  0.12541378    -0.07780
C1329       C  0.55007254  0.81161496  0.12841073     0.05750
C1330       C  0.52246814  0.80091730  0.17235095    -0.02800
Br1331     Br  0.50387588  0.74738424  0.18494685    -0.02500
H1332       H  0.49076032  0.81965136  0.24786515     0.09660
H1333       H  0.58445007  0.85899441  0.08881737     0.07680
Br1334     Br  0.59177104  0.92207499  0.17120449    -0.02920
C1335       C  0.52366395  0.82995807  0.85776229    -0.09560
C1336       C  0.56201087  0.81967762  0.87666333     0.06640
C1337       C  0.59489579  0.83044314  0.84174085    -0.03330
C1338       C  0.58811190  0.84862958  0.78696410    -0.07780
C1339       C  0.54913758  0.85936968  0.76688678     0.05750
C1340       C  0.51743172  0.84961753  0.80404068    -0.02800
Br1341     Br  0.46473957  0.85994422  0.78172326    -0.02500
H1342       H  0.49815523  0.82126458  0.88357254     0.09660
H1343       H  0.61463557  0.85474880  0.76180773     0.07680
Br1344     Br  0.65013006  0.82116688  0.86307836    -0.02920
loop_ 
_geom_bond_atom_site_label_1 
_geom_bond_atom_site_label_2 
_geom_bond_distance 
_geom_bond_site_symmetry_2 
_ccdc_geom_bond_type 
O1            V9   2.082       .  S
O1           C11   1.325       .  A
O2         V1017   2.023       .  S
O2           C12   1.312       .  A
O3          V681   1.870       .  S
O3           C13   1.235       .  A
O4          V345   1.850       .  S
O4           C14   1.212       .  A
O5          V682   2.046       .  S
O5           C14   1.318       .  A
O6          V346   2.041       .  S
O6           C13   1.319       .  A
O7           V10   1.868       .  S
O7           C12   1.236       .  A
O8         V1018   1.864       .  S
O8           C11   1.233       .  A
V9         O1010   2.023       .  S
V9          O675   1.870       .  S
V9          O340   1.850       .  S
V9         V1018   2.024       .  T
V10         O677   2.046   1_455  S
V10         O342   2.041   1_545  S
V10        O1016   1.864   1_445  S
V10        V1017   2.024       .  T
C11          C43   1.660       .  S
C12          C46   1.629       .  S
C13          C77   1.624       .  S
C14          C80   1.617       .  S
O15          V23   2.031       .  S
O15          C25   1.308       .  A
O16        V1031   2.026       .  S
O16          C26   1.317       .  A
O17         V359   1.873       .  S
O17          C27   1.231       .  A
O18         V695   1.872       .  S
O18          C28   1.233       .  A
O19         V360   2.017       .  S
O19          C28   1.314       .  A
O20         V696   2.024       .  S
O20          C27   1.319       .  A
O21          V24   1.843       .  S
O21          C26   1.229       .  A
O22        V1032   1.801       .  S
O22          C25   1.211       .  A
V23        O1024   2.026       .  S
V23         O353   1.873       .  S
V23         O690   1.872       .  S
V23        V1032   2.028       .  T
V24         O355   2.017   1_545  S
V24         O692   2.024   1_455  S
V24        O1030   1.801   1_445  S
V24        V1031   2.028       .  T
C25          C44   1.595       .  S
C26          C45   1.613       .  S
C27          C79   1.621       .  S
C28          C78   1.620       .  S
O29          V37   1.845   1_556  S
O29          C39   1.250       .  A
O30          V37   1.873       .  S
O30          C40   1.253       .  A
O31          V37   1.909   1_556  S
O31          C41   1.269       .  A
O32          V37   1.887       .  S
O32          C42   1.265       .  A
O33          V38   1.826   1_554  S
O33          C42   1.244       .  A
O34          V38   1.839       .  S
O34          C41   1.247       .  A
O35          V38   1.877   1_554  S
O35          C40   1.260       .  A
O36          V38   1.866       .  S
O36          C39   1.261       .  A
V37          V38   2.088   1_554  T
C39         C328   1.436       .  S
C40         C308   1.438       .  S
C41         C298   1.443       .  S
C42         C321   1.419       .  S
C43         C268   1.563       .  S
C43         C281   1.692       .  S
C43         C291   1.555       .  S
C44         C238   1.541       .  S
C44         C248   1.693       .  S
C44         C261   1.595       .  S
C45         C218   1.501       .  S
C45         C231   1.654       .  S
C45         C311   1.570       .  S
C46         C198   1.524       .  S
C46         C211   1.676       .  S
C46         C301   1.550       .  S
C47         C251   1.609       .  S
C47         C278   1.592   1_554  S
C47         C384   1.466       .  D
C48         C208   1.579   1_554  S
C48         C228   1.594       .  S
C48         C383   1.466       .  D
O49          V57   1.883       .  S
O49          C59   1.260       .  A
O50          V57   1.880   1_556  S
O50          C60   1.263       .  A
O51          V57   1.872       .  S
O51          C61   1.255       .  A
O52          V57   1.854   1_556  S
O52          C62   1.252       .  A
O53          V58   1.891   1_556  S
O53          C62   1.263       .  A
O54          V58   1.905       .  S
O54          C61   1.268       .  A
O55          V58   1.879   1_556  S
O55          C60   1.255       .  A
O56          V58   1.859       .  S
O56          C59   1.256       .  A
V57          V58   2.087       .  T
C59         C181   1.436       .  S
C60         C288   1.444       .  S
C61         C258   1.455       .  S
C62         C188   1.428       .  S
O63          V71   1.853       .  S
O63          C73   1.253       .  A
O64          V71   1.859       .  S
O64          C74   1.253       .  A
O65          V71   1.864       .  S
O65          C75   1.258       .  A
O66          V71   1.848       .  S
O66          C76   1.247       .  A
O67          V72   1.866       .  S
O67          C76   1.254       .  A
O68          V72   1.866       .  S
O68          C75   1.257       .  A
O69          V72   1.891       .  S
O69          C74   1.264       .  A
O70          V72   1.905       .  S
O70          C73   1.264       .  A
V71          V72   2.090       .  T
C73         C271   1.444       .  S
C74         C161   1.439       .  S
C75         C168   1.436       .  S
C76         C241   1.407       .  S
C77         C151   1.641       .  S
C77         C171   1.543       .  S
C77         C331   1.528       .  S
C78         C141   1.657       .  S
C78         C158   1.559       .  S
C78         C318   1.506       .  S
C79         C118   1.664       .  S
C79         C131   1.546       .  S
C79         C178   1.544       .  S
C80          C98   1.679       .  S
C80         C108   1.554       .  S
C80         C191   1.540       .  S
C81         C138   1.573       .  S
C81         C148   1.593   1_655  S
C81         C754   1.461       .  D
C82         C101   1.596       .  S
C82         C121   1.591       .  S
C82         C753   1.461       .  D
O83          V91   1.880       .  S
O83          C93   1.259       .  A
O84          V91   1.892       .  S
O84          C94   1.263       .  A
O85          V91   1.899       .  S
O85          C95   1.265       .  A
O86          V91   1.883       .  S
O86          C96   1.258       .  A
O87          V92   1.855       .  S
O87          C96   1.253       .  A
O88          V92   1.883       .  S
O88          C95   1.257       .  A
O89          V92   1.863       .  S
O89          C94   1.257       .  A
O90          V92   1.847       .  S
O90          C93   1.247       .  A
V91          V92   2.091       .  T
C93         C221   1.420       .  S
C94         C111   1.449       .  S
C95         C128   1.458       .  S
C96         C201   1.422       .  S
C97          C98   1.440       .  A
C97         C102   1.421       .  A
C97         H104   1.074       .  S
C98          C99   1.440       .  A
C99         C100   1.464       .  A
C99        Br106   1.897       .  S
C100        C101   1.432       .  A
C100        H777   1.083       .  S
C101        C102   1.418       .  A
C102       Br103   1.918       .  S
H105        C772   1.083       .  S
C107        C108   1.423       .  A
C107        C112   1.389       .  A
C107        H114   1.076       .  S
C108        C109   1.440       .  A
C109        C110   1.378       .  A
C109       Br116   1.941       .  S
C110        C111   1.385       .  A
C110        H115   1.078       .  S
C111        C112   1.399       .  A
C112       Br113   1.924       .  S
C117        C118   1.432       .  A
C117        C122   1.462       .  A
C117        H124   1.082       .  S
C118        C119   1.453       .  A
C119        C120   1.421       .  A
C119       Br126   1.928       .  S
C120        C121   1.397       .  A
C120        H125   1.080       .  S
C121        C122   1.437       .  A
C122       Br795   1.908       .  S
Br123       C794   1.908       .  S
C127        C128   1.399       .  A
C127        C132   1.404       .  A
C127        H134   1.083       .  S
C128        C129   1.395       .  A
C129        C130   1.383       .  A
C129       Br136   1.903       .  S
C130        C131   1.415       .  A
C130        H135   1.082       .  S
C131        C132   1.426       .  A
C132       Br133   1.919       .  S
C137        C138   1.392   1_455  A
C137        C142   1.419       .  A
C137        H144   1.082       .  S
C138        C139   1.435       .  A
C139        C140   1.447       .  A
C139       Br146   1.917       .  S
C140        C141   1.417   1_655  A
C140        H145   1.069       .  S
C141        C142   1.458       .  A
C142       Br143   1.907       .  S
C147        C148   1.427       .  A
C147        C152   1.429       .  A
C147        H154   1.079       .  S
C148        C149   1.413   1_455  A
C149        C150   1.429   1_655  A
C149       Br828   1.882       .  S
C150        C151   1.433       .  A
C150        H155   1.075   1_455  S
C151        C152   1.441       .  A
C152       Br153   1.919       .  S
Br156       C821   1.882       .  S
C157        C158   1.419       .  A
C157        C162   1.375       .  A
C157        H164   1.077       .  S
C158        C159   1.452       .  A
C159        C160   1.393       .  A
C159       Br166   1.940       .  S
C160        C161   1.383       .  A
C160        H165   1.083       .  S
C161        C162   1.390       .  A
C162       Br163   1.924       .  S
C167        C168   1.394       .  A
C167        C172   1.379       .  A
C167        H174   1.084       .  S
C168        C169   1.402       .  A
C169        C170   1.377       .  A
C169       Br176   1.925       .  S
C170        C171   1.420       .  A
C170        H175   1.082       .  S
C171        C172   1.399       .  A
C172       Br173   1.873       .  S
C177        C178   1.416       .  A
C177        C182   1.377       .  A
C177        H184   1.080       .  S
C178        C179   1.440       .  A
C179        C180   1.381       .  A
C179       Br186   1.909       .  S
C180        C181   1.383       .  A
C180        H185   1.086       .  S
C181        C182   1.385       .  A
C182       Br183   1.897       .  S
C187        C188   1.385       .  A
C187        C192   1.376       .  A
C187        H194   1.086       .  S
C188        C189   1.393       .  A
C189        C190   1.390       .  A
C189       Br196   1.913       .  S
C190        C191   1.418       .  A
C190        H195   1.077       .  S
C191        C192   1.419       .  A
C192       Br193   1.908       .  S
C197        C198   1.404       .  A
C197        C202   1.366       .  A
C197        H204   1.077       .  S
C198        C199   1.439       .  A
C199        C200   1.390       .  A
C199       Br206   1.922       .  S
C200        C201   1.384       .  A
C200        H205   1.082       .  S
C201        C202   1.384       .  A
C202       Br203   1.899       .  S
C207        C208   1.395       .  A
C207        C212   1.427       .  A
C207        H214   1.084       .  S
C208        C209   1.432   1_545  A
C209        C210   1.445       .  A
C209       Br552   1.921       .  S
C210        C211   1.423   1_565  A
C210        H215   1.068       .  S
C211        C212   1.467       .  A
C212       Br213   1.909       .  S
Br216       C545   1.921       .  S
C217        C218   1.406       .  A
C217        C222   1.386       .  A
C217        H224   1.084       .  S
C218        C219   1.418       .  A
C219        C220   1.373       .  A
C219       Br226   1.919   1_545  S
C220        C221   1.390       .  A
C220        H225   1.085   1_545  S
C221        C222   1.393       .  A
C222       Br223   1.913       .  S
C227        C228   1.416       .  A
C227        C232   1.441       .  A
C227        H234   1.083       .  S
C228        C229   1.442   1_545  A
C229        C230   1.428   1_565  A
C229       Br572   1.900       .  S
C230        C231   1.405       .  A
C230        H235   1.068   1_545  S
C231        C232   1.451       .  A
C232       Br233   1.915       .  S
Br236       C565   1.900       .  S
C237        C238   1.420       .  A
C237        C242   1.372       .  A
C237        H244   1.083       .  S
C238        C239   1.434       .  A
C239        C240   1.373       .  A
C239       Br246   1.931       .  S
C240        C241   1.379       .  A
C240        H245   1.086       .  S
C241        C242   1.385       .  A
C242       Br243   1.915       .  S
C247        C248   1.440       .  A
C247        C252   1.434       .  A
C247        H254   1.073       .  S
C248        C249   1.458       .  A
C249        C250   1.449       .  A
C249       Br256   1.927       .  S
C250        C251   1.429       .  A
C250        H255   1.076       .  S
C251        C252   1.423       .  A
C252       Br589   1.914       .  S
Br253       C588   1.914       .  S
C257        C258   1.385       .  A
C257        C262   1.397       .  A
C257        H264   1.085       .  S
C258        C259   1.395       .  A
C259        C260   1.386       .  A
C259       Br266   1.919       .  S
C260        C261   1.416       .  A
C260        H265   1.065       .  S
C261        C262   1.449       .  A
C262       Br263   1.926       .  S
C267        C268   1.406       .  A
C267        C272   1.381       .  A
C267        H274   1.071       .  S
C268        C269   1.441       .  A
C269        C270   1.398       .  A
C269       Br276   1.901       .  S
C270        C271   1.384       .  A
C270        H275   1.084       .  S
C271        C272   1.390       .  A
C272       Br273   1.922       .  S
C277        C278   1.389       .  A
C277        C282   1.422       .  A
C277        H284   1.082       .  S
C278        C279   1.439       .  A
C279        C280   1.466       .  A
C279       Br622   1.909       .  S
C280        C281   1.434       .  A
C280        H285   1.083       .  S
C281        C282   1.477       .  A
C282       Br283   1.931       .  S
Br286       C615   1.909       .  S
C287        C288   1.380       .  A
C287        C292   1.376       .  A
C287        H294   1.073       .  S
C288        C289   1.397       .  A
C289        C290   1.400       .  A
C289       Br296   1.919       .  S
C290        C291   1.425       .  A
C290        H295   1.076       .  S
C291        C292   1.441       .  A
C292       Br293   1.942       .  S
C297        C298   1.389       .  A
C297        C302   1.404       .  A
C297        H304   1.084       .  S
C298        C299   1.391       .  A
C299        C300   1.358       .  A
C299       Br306   1.913       .  S
C300        C301   1.407       .  A
C300        H305   1.072       .  S
C301        C302   1.449       .  A
C302       Br303   1.934       .  S
C307        C308   1.393       .  A
C307        C312   1.406       .  A
C307        H314   1.085       .  S
C308        C309   1.375       .  A
C309        C310   1.360       .  A
C309       Br316   1.909       .  S
C310        C311   1.422       .  A
C310        H315   1.075       .  S
C311        C312   1.446       .  A
C312       Br313   1.922       .  S
C317        C318   1.402       .  A
C317        C322   1.370       .  A
C317        H324   1.081   1_455  S
C318        C319   1.420       .  A
C319        C320   1.380       .  A
C319       Br326   1.901       .  S
C320        C321   1.384       .  A
C320        H325   1.085       .  S
C321        C322   1.400       .  A
C322       Br323   1.912       .  S
C327        C328   1.389       .  A
C327        C332   1.372       .  A
C327        H334   1.076   1_455  S
C328        C329   1.404       .  A
C329        C330   1.374       .  A
C329       Br336   1.931       .  S
C330        C331   1.420       .  A
C330        H335   1.077       .  S
C331        C332   1.393       .  A
C332       Br333   1.861   1_455  S
O337        V345   2.082   1_565  S
O337        C347   1.325       .  A
O338        V681   2.023       .  S
O338        C348   1.312       .  A
O339       V1017   1.870   1_565  S
O339        C349   1.235       .  A
O340        C350   1.212       .  A
O341       V1018   2.046       .  S
O341        C350   1.318       .  A
O342        C349   1.319       .  A
O343        V346   1.868       .  S
O343        C348   1.236       .  A
O344        V682   1.864   1_565  S
O344        C347   1.233       .  A
V345        O674   2.023       .  S
V345       O1011   1.870   1_545  S
V345        V682   2.024       .  T
V346       O1013   2.046   1_455  S
V346        O680   1.864   1_455  S
V346        V681   2.024       .  T
C347        C379   1.660       .  S
C348        C382   1.629       .  S
C349        C413   1.624       .  S
C350        C416   1.617       .  S
O351        V359   2.031   1_565  S
O351        C361   1.308       .  A
O352        V695   2.026       .  S
O352        C362   1.317       .  A
O353        C363   1.231       .  A
O354       V1031   1.872   1_565  S
O354        C364   1.233       .  A
O355        C364   1.314       .  A
O356       V1032   2.024       .  S
O356        C363   1.319       .  A
O357        V360   1.843       .  S
O357        C362   1.229       .  A
O358        V696   1.801   1_565  S
O358        C361   1.211       .  A
V359        O688   2.026       .  S
V359       O1026   1.872   1_545  S
V359        V696   2.028       .  T
V360       O1028   2.024   1_455  S
V360        O694   1.801   1_455  S
V360        V695   2.028       .  T
C361        C380   1.595       .  S
C362        C381   1.613       .  S
C363        C415   1.621       .  S
C364        C414   1.620       .  S
O365        V373   1.845   1_556  S
O365        C375   1.250       .  A
O366        V373   1.873       .  S
O366        C376   1.253       .  A
O367        V373   1.909   1_556  S
O367        C377   1.269       .  A
O368        V373   1.887       .  S
O368        C378   1.265       .  A
O369        V374   1.826   1_554  S
O369        C378   1.244       .  A
O370        V374   1.839       .  S
O370        C377   1.247       .  A
O371        V374   1.877   1_554  S
O371        C376   1.260       .  A
O372        V374   1.866       .  S
O372        C375   1.261       .  A
V373        V374   2.088   1_554  T
C375        C664   1.436       .  S
C376        C644   1.438       .  S
C377        C634   1.443       .  S
C378        C657   1.419       .  S
C379        C604   1.563       .  S
C379        C617   1.692       .  S
C379        C627   1.555       .  S
C380        C574   1.541       .  S
C380        C584   1.693       .  S
C380        C597   1.595       .  S
C381        C554   1.501       .  S
C381        C567   1.654       .  S
C381        C647   1.570       .  S
C382        C534   1.524       .  S
C382        C547   1.676       .  S
C382        C637   1.550       .  S
C383        C587   1.609   1_545  S
C383        C614   1.592   1_554  S
C384        C544   1.579   1_554  S
C384        C564   1.594       .  S
O385        V393   1.883       .  S
O385        C395   1.260       .  A
O386        V393   1.880   1_556  S
O386        C396   1.263       .  A
O387        V393   1.872       .  S
O387        C397   1.255       .  A
O388        V393   1.854   1_556  S
O388        C398   1.252       .  A
O389        V394   1.891   1_556  S
O389        C398   1.263       .  A
O390        V394   1.905       .  S
O390        C397   1.268       .  A
O391        V394   1.879   1_556  S
O391        C396   1.255       .  A
O392        V394   1.859       .  S
O392        C395   1.256       .  A
V393        V394   2.087       .  T
C395        C517   1.436       .  S
C396        C624   1.444       .  S
C397        C594   1.455       .  S
C398        C524   1.428       .  S
O399        V407   1.853       .  S
O399        C409   1.253       .  A
O400        V407   1.859       .  S
O400        C410   1.253       .  A
O401        V407   1.864       .  S
O401        C411   1.258       .  A
O402        V407   1.848       .  S
O402        C412   1.247       .  A
O403        V408   1.866       .  S
O403        C412   1.254       .  A
O404        V408   1.866       .  S
O404        C411   1.257       .  A
O405        V408   1.891       .  S
O405        C410   1.264       .  A
O406        V408   1.905       .  S
O406        C409   1.264       .  A
V407        V408   2.090       .  T
C409        C607   1.444       .  S
C410        C497   1.439       .  S
C411        C504   1.436       .  S
C412        C577   1.407       .  S
C413        C487   1.641       .  S
C413        C507   1.543       .  S
C413        C667   1.528       .  S
C414        C477   1.657       .  S
C414        C494   1.559       .  S
C414        C654   1.506       .  S
C415        C454   1.664       .  S
C415        C467   1.546       .  S
C415        C514   1.544       .  S
C416        C434   1.679       .  S
C416        C444   1.554       .  S
C416        C527   1.540       .  S
C417        C474   1.573       .  S
C417        C484   1.593   1_655  S
C417       C1090   1.461       .  D
C418        C437   1.596       .  S
C418        C457   1.591       .  S
C418       C1089   1.461       .  D
O419        V427   1.880       .  S
O419        C429   1.259       .  A
O420        V427   1.892       .  S
O420        C430   1.263       .  A
O421        V427   1.899       .  S
O421        C431   1.265       .  A
O422        V427   1.883       .  S
O422        C432   1.258       .  A
O423        V428   1.855       .  S
O423        C432   1.253       .  A
O424        V428   1.883       .  S
O424        C431   1.257       .  A
O425        V428   1.863       .  S
O425        C430   1.257       .  A
O426        V428   1.847       .  S
O426        C429   1.247       .  A
V427        V428   2.091       .  T
C429        C557   1.420       .  S
C430        C447   1.449       .  S
C431        C464   1.458       .  S
C432        C537   1.422       .  S
C433        C434   1.440       .  A
C433        C438   1.421       .  A
C433        H440   1.074       .  S
C434        C435   1.440       .  A
C435        C436   1.464       .  A
C435       Br442   1.897       .  S
C436        C437   1.432       .  A
C436       H1113   1.083       .  S
C437        C438   1.418       .  A
C438       Br439   1.918       .  S
H441       C1108   1.083       .  S
C443        C444   1.423       .  A
C443        C448   1.389       .  A
C443        H450   1.076       .  S
C444        C445   1.440       .  A
C445        C446   1.378       .  A
C445       Br452   1.941       .  S
C446        C447   1.385       .  A
C446        H451   1.078       .  S
C447        C448   1.399       .  A
C448       Br449   1.924       .  S
C453        C454   1.432       .  A
C453        C458   1.462       .  A
C453        H460   1.082       .  S
C454        C455   1.453       .  A
C455        C456   1.421       .  A
C455       Br462   1.928       .  S
C456        C457   1.397       .  A
C456        H461   1.080       .  S
C457        C458   1.437       .  A
C458      Br1131   1.908       .  S
Br459      C1130   1.908       .  S
C463        C464   1.399       .  A
C463        C468   1.404       .  A
C463        H470   1.083       .  S
C464        C465   1.395       .  A
C465        C466   1.383       .  A
C465       Br472   1.903       .  S
C466        C467   1.415       .  A
C466        H471   1.082       .  S
C467        C468   1.426       .  A
C468       Br469   1.919       .  S
C473        C474   1.392   1_455  A
C473        C478   1.419       .  A
C473        H480   1.082       .  S
C474        C475   1.435       .  A
C475        C476   1.447       .  A
C475       Br482   1.917       .  S
C476        C477   1.417   1_655  A
C476        H481   1.069       .  S
C477        C478   1.458       .  A
C478       Br479   1.907       .  S
C483        C484   1.427       .  A
C483        C488   1.429       .  A
C483        H490   1.079       .  S
C484        C485   1.413   1_455  A
C485        C486   1.429   1_655  A
C485      Br1164   1.882       .  S
C486        C487   1.433       .  A
C486        H491   1.075   1_455  S
C487        C488   1.441       .  A
C488       Br489   1.919       .  S
Br492      C1157   1.882       .  S
C493        C494   1.419       .  A
C493        C498   1.375       .  A
C493        H500   1.077       .  S
C494        C495   1.452       .  A
C495        C496   1.393       .  A
C495       Br502   1.940       .  S
C496        C497   1.383       .  A
C496        H501   1.083       .  S
C497        C498   1.390       .  A
C498       Br499   1.924       .  S
C503        C504   1.394       .  A
C503        C508   1.379       .  A
C503        H510   1.084       .  S
C504        C505   1.402       .  A
C505        C506   1.377       .  A
C505       Br512   1.925       .  S
C506        C507   1.420       .  A
C506        H511   1.082       .  S
C507        C508   1.399       .  A
C508       Br509   1.873       .  S
C513        C514   1.416       .  A
C513        C518   1.377       .  A
C513        H520   1.080       .  S
C514        C515   1.440       .  A
C515        C516   1.381       .  A
C515       Br522   1.909       .  S
C516        C517   1.383       .  A
C516        H521   1.086       .  S
C517        C518   1.385       .  A
C518       Br519   1.897       .  S
C523        C524   1.385       .  A
C523        C528   1.376       .  A
C523        H530   1.086       .  S
C524        C525   1.393       .  A
C525        C526   1.390       .  A
C525       Br532   1.913       .  S
C526        C527   1.418       .  A
C526        H531   1.077       .  S
C527        C528   1.419       .  A
C528       Br529   1.908       .  S
C533        C534   1.404       .  A
C533        C538   1.366       .  A
C533        H540   1.077       .  S
C534        C535   1.439       .  A
C535        C536   1.390       .  A
C535       Br542   1.922       .  S
C536        C537   1.384       .  A
C536        H541   1.082       .  S
C537        C538   1.384       .  A
C538       Br539   1.899       .  S
C543        C544   1.395       .  A
C543        C548   1.427       .  A
C543        H550   1.084       .  S
C544        C545   1.432       .  A
C545        C546   1.445       .  A
C546        C547   1.423       .  A
C546        H551   1.068       .  S
C547        C548   1.467       .  A
C548       Br549   1.909       .  S
C553        C554   1.406       .  A
C553        C558   1.386       .  A
C553        H560   1.084       .  S
C554        C555   1.418       .  A
C555        C556   1.373       .  A
C555       Br562   1.919       .  S
C556        C557   1.390       .  A
C556        H561   1.085       .  S
C557        C558   1.393       .  A
C558       Br559   1.913       .  S
C563        C564   1.416       .  A
C563        C568   1.441       .  A
C563        H570   1.083       .  S
C564        C565   1.442       .  A
C565        C566   1.428       .  A
C566        C567   1.405       .  A
C566        H571   1.068       .  S
C567        C568   1.451       .  A
C568       Br569   1.915       .  S
C573        C574   1.420       .  A
C573        C578   1.372       .  A
C573        H580   1.083       .  S
C574        C575   1.434       .  A
C575        C576   1.373       .  A
C575       Br582   1.931       .  S
C576        C577   1.379       .  A
C576        H581   1.086       .  S
C577        C578   1.385       .  A
C578       Br579   1.915       .  S
C583        C584   1.440       .  A
C583        C588   1.434       .  A
C583        H590   1.073       .  S
C584        C585   1.458   1_565  A
C585        C586   1.449       .  A
C585       Br592   1.927       .  S
C586        C587   1.429   1_545  A
C586        H591   1.076       .  S
C587        C588   1.423       .  A
C593        C594   1.385       .  A
C593        C598   1.397       .  A
C593        H600   1.085       .  S
C594        C595   1.395       .  A
C595        C596   1.386       .  A
C595       Br602   1.919       .  S
C596        C597   1.416       .  A
C596        H601   1.065       .  S
C597        C598   1.449       .  A
C598       Br599   1.926       .  S
C603        C604   1.407       .  A
C603        C608   1.381       .  A
C603        H610   1.071       .  S
C604        C605   1.441       .  A
C605        C606   1.398       .  A
C605       Br612   1.901       .  S
C606        C607   1.384       .  A
C606        H611   1.084       .  S
C607        C608   1.390       .  A
C608       Br609   1.922       .  S
C613        C614   1.389   1_565  A
C613        C618   1.422       .  A
C613        H620   1.082       .  S
C614        C615   1.439       .  A
C615        C616   1.466       .  A
C616        C617   1.434   1_545  A
C616        H621   1.083       .  S
C617        C618   1.477       .  A
C618       Br619   1.931       .  S
C623        C624   1.380       .  A
C623        C628   1.376       .  A
C623        H630   1.073       .  S
C624        C625   1.397       .  A
C625        C626   1.400       .  A
C625       Br632   1.919       .  S
C626        C627   1.425       .  A
C626        H631   1.076       .  S
C627        C628   1.441       .  A
C628       Br629   1.942       .  S
C633        C634   1.389       .  A
C633        C638   1.404       .  A
C633        H640   1.084       .  S
C634        C635   1.391       .  A
C635        C636   1.358       .  A
C635       Br642   1.913       .  S
C636        C637   1.407       .  A
C636        H641   1.072       .  S
C637        C638   1.449       .  A
C638       Br639   1.934       .  S
C643        C644   1.393       .  A
C643        C648   1.406       .  A
C643        H650   1.085       .  S
C644        C645   1.375       .  A
C645        C646   1.360       .  A
C645       Br652   1.909       .  S
C646        C647   1.422       .  A
C646        H651   1.075       .  S
C647        C648   1.446       .  A
C648       Br649   1.922       .  S
C653        C654   1.402       .  A
C653        C658   1.370       .  A
C653        H660   1.081   1_455  S
C654        C655   1.420       .  A
C655        C656   1.380       .  A
C655       Br662   1.901       .  S
C656        C657   1.384       .  A
C656        H661   1.085       .  S
C657        C658   1.400       .  A
C658       Br659   1.912       .  S
C663        C664   1.389       .  A
C663        C668   1.372       .  A
C663        H670   1.076   1_455  S
C664        C665   1.404       .  A
C665        C666   1.374       .  A
C665       Br672   1.931       .  S
C666        C667   1.420       .  A
C666        H671   1.077       .  S
C667        C668   1.393       .  A
C668       Br669   1.861   1_455  S
O673        V681   2.082   1_655  S
O673        C683   1.325       .  A
O674        C684   1.312       .  A
O675        C685   1.235       .  A
O676       V1017   1.850       .  S
O676        C686   1.212   1_455  A
O677        C686   1.318       .  A
O678       V1018   2.041       .  S
O678        C685   1.319       .  A
O679        V682   1.868       .  S
O679        C684   1.236       .  A
O680        C683   1.233       .  A
V681       O1012   1.850       .  S
V682       O1014   2.041   1_545  S
C683        C715   1.660       .  S
C684        C718   1.629       .  S
C685        C749   1.624       .  S
C686        C752   1.617       .  S
O687        V695   2.031   1_655  S
O687        C697   1.308       .  A
O688        C698   1.317       .  A
O689       V1031   1.873       .  S
O689        C699   1.231   1_455  A
O690        C700   1.233       .  A
O691       V1032   2.017       .  S
O691        C700   1.314       .  A
O692        C699   1.319       .  A
O693        V696   1.843       .  S
O693        C698   1.229       .  A
O694        C697   1.211       .  A
V695       O1025   1.873       .  S
V696       O1027   2.017   1_545  S
C697        C716   1.595       .  S
C698        C717   1.613       .  S
C699        C751   1.621       .  S
C700        C750   1.620       .  S
O701        V709   1.845   1_556  S
O701        C711   1.250       .  A
O702        V709   1.873       .  S
O702        C712   1.253       .  A
O703        V709   1.909   1_556  S
O703        C713   1.269       .  A
O704        V709   1.887       .  S
O704        C714   1.265       .  A
O705        V710   1.826   1_554  S
O705        C714   1.244       .  A
O706        V710   1.839       .  S
O706        C713   1.247       .  A
O707        V710   1.877   1_554  S
O707        C712   1.260       .  A
O708        V710   1.866       .  S
O708        C711   1.261       .  A
V709        V710   2.088   1_554  T
C711       C1000   1.436       .  S
C712        C980   1.438       .  S
C713        C970   1.443       .  S
C714        C993   1.419       .  S
C715        C940   1.563       .  S
C715        C953   1.692       .  S
C715        C963   1.555       .  S
C716        C910   1.541       .  S
C716        C920   1.693       .  S
C716        C933   1.595       .  S
C717        C890   1.501       .  S
C717        C903   1.654       .  S
C717        C983   1.570       .  S
C718        C870   1.524       .  S
C718        C883   1.676       .  S
C718        C973   1.550       .  S
C719        C923   1.609       .  S
C719        C950   1.592   1_554  S
C719       C1056   1.466       .  D
C720        C880   1.579   1_554  S
C720        C900   1.594       .  S
C720       C1055   1.466       .  D
O721        V729   1.883       .  S
O721        C731   1.260       .  A
O722        V729   1.880   1_556  S
O722        C732   1.263       .  A
O723        V729   1.872       .  S
O723        C733   1.255       .  A
O724        V729   1.854   1_556  S
O724        C734   1.252       .  A
O725        V730   1.891   1_556  S
O725        C734   1.263       .  A
O726        V730   1.905       .  S
O726        C733   1.268       .  A
O727        V730   1.879   1_556  S
O727        C732   1.255       .  A
O728        V730   1.859       .  S
O728        C731   1.256       .  A
V729        V730   2.087       .  T
C731        C853   1.436       .  S
C732        C960   1.444       .  S
C733        C930   1.455       .  S
C734        C860   1.428       .  S
O735        V743   1.853       .  S
O735        C745   1.253       .  A
O736        V743   1.859       .  S
O736        C746   1.253       .  A
O737        V743   1.864       .  S
O737        C747   1.258       .  A
O738        V743   1.848       .  S
O738        C748   1.247       .  A
O739        V744   1.866       .  S
O739        C748   1.254       .  A
O740        V744   1.866       .  S
O740        C747   1.257       .  A
O741        V744   1.891       .  S
O741        C746   1.264       .  A
O742        V744   1.905       .  S
O742        C745   1.264       .  A
V743        V744   2.090       .  T
C745        C943   1.444       .  S
C746        C833   1.439       .  S
C747        C840   1.436       .  S
C748        C913   1.407       .  S
C749        C823   1.641       .  S
C749        C843   1.543       .  S
C749       C1003   1.528       .  S
C750        C813   1.657       .  S
C750        C830   1.559       .  S
C750        C990   1.506       .  S
C751        C790   1.664       .  S
C751        C803   1.546       .  S
C751        C850   1.544       .  S
C752        C770   1.679       .  S
C752        C780   1.554       .  S
C752        C863   1.540       .  S
C753        C810   1.573       .  S
C753        C820   1.593       .  S
C754        C773   1.596       .  S
C754        C793   1.591       .  S
O755        V763   1.880       .  S
O755        C765   1.259       .  A
O756        V763   1.892       .  S
O756        C766   1.263       .  A
O757        V763   1.899       .  S
O757        C767   1.265       .  A
O758        V763   1.883       .  S
O758        C768   1.258       .  A
O759        V764   1.855       .  S
O759        C768   1.253       .  A
O760        V764   1.883       .  S
O760        C767   1.257       .  A
O761        V764   1.863       .  S
O761        C766   1.257       .  A
O762        V764   1.847       .  S
O762        C765   1.247       .  A
V763        V764   2.091       .  T
C765        C893   1.420       .  S
C766        C783   1.449       .  S
C767        C800   1.458       .  S
C768        C873   1.422       .  S
C769        C770   1.440       .  A
C769        C774   1.421       .  A
C769        H776   1.074       .  S
C770        C771   1.440   1_655  A
C771        C772   1.464       .  A
C771       Br778   1.897       .  S
C772        C773   1.432   1_455  A
C773        C774   1.418       .  A
C774       Br775   1.918       .  S
C779        C780   1.423       .  A
C779        C784   1.389       .  A
C779        H786   1.076       .  S
C780        C781   1.440       .  A
C781        C782   1.378       .  A
C781       Br788   1.941       .  S
C782        C783   1.385       .  A
C782        H787   1.078       .  S
C783        C784   1.399       .  A
C784       Br785   1.924       .  S
C789        C790   1.432   1_455  A
C789        C794   1.462       .  A
C789        H796   1.082       .  S
C790        C791   1.453       .  A
C791        C792   1.421       .  A
C791       Br798   1.928       .  S
C792        C793   1.397       .  A
C792        H797   1.080       .  S
C793        C794   1.437   1_655  A
C799        C800   1.399       .  A
C799        C804   1.404       .  A
C799        H806   1.083       .  S
C800        C801   1.395       .  A
C801        C802   1.383       .  A
C801       Br808   1.903       .  S
C802        C803   1.415       .  A
C802        H807   1.082       .  S
C803        C804   1.426       .  A
C804       Br805   1.919       .  S
C809        C810   1.392       .  A
C809        C814   1.419       .  A
C809        H816   1.082       .  S
C810        C811   1.435       .  A
C811        C812   1.447       .  A
C811       Br818   1.917       .  S
C812        C813   1.417       .  A
C812        H817   1.069       .  S
C813        C814   1.458       .  A
C814       Br815   1.907       .  S
C819        C820   1.427       .  A
C819        C824   1.429       .  A
C819        H826   1.079       .  S
C820        C821   1.413       .  A
C821        C822   1.429       .  A
C822        C823   1.433       .  A
C822        H827   1.075       .  S
C823        C824   1.441       .  A
C824       Br825   1.919       .  S
C829        C830   1.419       .  A
C829        C834   1.375       .  A
C829        H836   1.077       .  S
C830        C831   1.452       .  A
C831        C832   1.393       .  A
C831       Br838   1.940       .  S
C832        C833   1.383       .  A
C832        H837   1.083       .  S
C833        C834   1.390       .  A
C834       Br835   1.924       .  S
C839        C840   1.394       .  A
C839        C844   1.379       .  A
C839        H846   1.084       .  S
C840        C841   1.402       .  A
C841        C842   1.377       .  A
C841       Br848   1.925       .  S
C842        C843   1.420       .  A
C842        H847   1.082       .  S
C843        C844   1.399       .  A
C844       Br845   1.873       .  S
C849        C850   1.416       .  A
C849        C854   1.377       .  A
C849        H856   1.080   1_655  S
C850        C851   1.440       .  A
C851        C852   1.381       .  A
C851       Br858   1.909       .  S
C852        C853   1.383       .  A
C852        H857   1.086       .  S
C853        C854   1.385       .  A
C854       Br855   1.897       .  S
C859        C860   1.385       .  A
C859        C864   1.376       .  A
C859        H866   1.086       .  S
C860        C861   1.393       .  A
C861        C862   1.390       .  A
C861       Br868   1.913       .  S
C862        C863   1.418       .  A
C862        H867   1.077       .  S
C863        C864   1.419       .  A
C864       Br865   1.908       .  S
C869        C870   1.404       .  A
C869        C874   1.366       .  A
C869        H876   1.077       .  S
C870        C871   1.439       .  A
C871        C872   1.390       .  A
C871       Br878   1.922       .  S
C872        C873   1.384       .  A
C872        H877   1.082       .  S
C873        C874   1.384       .  A
C874       Br875   1.899       .  S
C879        C880   1.395       .  A
C879        C884   1.427       .  A
C879        H886   1.084       .  S
C880        C881   1.432   1_545  A
C881        C882   1.445       .  A
C881      Br1224   1.921       .  S
C882        C883   1.423   1_565  A
C882        H887   1.068       .  S
C883        C884   1.467       .  A
C884       Br885   1.909       .  S
Br888      C1217   1.921       .  S
C889        C890   1.406       .  A
C889        C894   1.386       .  A
C889        H896   1.084       .  S
C890        C891   1.418       .  A
C891        C892   1.373       .  A
C891       Br898   1.919   1_545  S
C892        C893   1.390       .  A
C892        H897   1.085   1_545  S
C893        C894   1.393       .  A
C894       Br895   1.913       .  S
C899        C900   1.416       .  A
C899        C904   1.441       .  A
C899        H906   1.083       .  S
C900        C901   1.442   1_545  A
C901        C902   1.428   1_565  A
C901      Br1244   1.900       .  S
C902        C903   1.405       .  A
C902        H907   1.068   1_545  S
C903        C904   1.451       .  A
C904       Br905   1.915       .  S
Br908      C1237   1.900       .  S
C909        C910   1.420       .  A
C909        C914   1.372       .  A
C909        H916   1.083       .  S
C910        C911   1.434       .  A
C911        C912   1.373       .  A
C911       Br918   1.931       .  S
C912        C913   1.379       .  A
C912        H917   1.086       .  S
C913        C914   1.385       .  A
C914       Br915   1.915       .  S
C919        C920   1.440       .  A
C919        C924   1.434       .  A
C919        H926   1.073       .  S
C920        C921   1.458       .  A
C921        C922   1.449       .  A
C921       Br928   1.927       .  S
C922        C923   1.429       .  A
C922        H927   1.076       .  S
C923        C924   1.423       .  A
C924      Br1261   1.914       .  S
Br925      C1260   1.914       .  S
C929        C930   1.385       .  A
C929        C934   1.397       .  A
C929        H936   1.085       .  S
C930        C931   1.395       .  A
C931        C932   1.386       .  A
C931       Br938   1.919       .  S
C932        C933   1.416       .  A
C932        H937   1.065       .  S
C933        C934   1.449       .  A
C934       Br935   1.926       .  S
C939        C940   1.406       .  A
C939        C944   1.381       .  A
C939        H946   1.071       .  S
C940        C941   1.441       .  A
C941        C942   1.398       .  A
C941       Br948   1.901       .  S
C942        C943   1.384       .  A
C942        H947   1.084       .  S
C943        C944   1.390       .  A
C944       Br945   1.922       .  S
C949        C950   1.389       .  A
C949        C954   1.422       .  A
C949        H956   1.082       .  S
C950        C951   1.439       .  A
C951        C952   1.466       .  A
C951      Br1294   1.909       .  S
C952        C953   1.434       .  A
C952        H957   1.083       .  S
C953        C954   1.477       .  A
C954       Br955   1.931       .  S
Br958      C1287   1.909       .  S
C959        C960   1.380       .  A
C959        C964   1.376       .  A
C959        H966   1.073       .  S
C960        C961   1.397       .  A
C961        C962   1.400       .  A
C961       Br968   1.919       .  S
C962        C963   1.425       .  A
C962        H967   1.076       .  S
C963        C964   1.441       .  A
C964       Br965   1.942       .  S
C969        C970   1.389       .  A
C969        C974   1.404       .  A
C969        H976   1.084       .  S
C970        C971   1.391       .  A
C971        C972   1.358       .  A
C971       Br978   1.913       .  S
C972        C973   1.407       .  A
C972        H977   1.072       .  S
C973        C974   1.449       .  A
C974       Br975   1.934       .  S
C979        C980   1.393       .  A
C979        C984   1.406       .  A
C979        H986   1.085       .  S
C980        C981   1.375       .  A
C981        C982   1.360       .  A
C981       Br988   1.909       .  S
C982        C983   1.422       .  A
C982        H987   1.075       .  S
C983        C984   1.446       .  A
C984       Br985   1.922       .  S
C989        C990   1.402       .  A
C989        C994   1.370       .  A
C989        H996   1.081       .  S
C990        C991   1.420       .  A
C991        C992   1.380       .  A
C991       Br998   1.901       .  S
C992        C993   1.384       .  A
C992        H997   1.085       .  S
C993        C994   1.400       .  A
C994       Br995   1.912       .  S
C999       C1000   1.389       .  A
C999       C1004   1.372       .  A
C999       H1006   1.076       .  S
C1000      C1001   1.404       .  A
C1001      C1002   1.374       .  A
C1001     Br1008   1.931       .  S
C1002      C1003   1.420       .  A
C1002      H1007   1.077       .  S
C1003      C1004   1.393       .  A
C1004     Br1005   1.861       .  S
O1009      V1017   2.082   1_665  S
O1009      C1019   1.325       .  A
O1010      C1020   1.312       .  A
O1011      C1021   1.235       .  A
O1012      C1022   1.212   1_455  A
O1013      C1022   1.318       .  A
O1014      C1021   1.319       .  A
O1015      V1018   1.868       .  S
O1015      C1020   1.236       .  A
O1016      C1019   1.233       .  A
C1019      C1051   1.660       .  S
C1020      C1054   1.629       .  S
C1021      C1085   1.624       .  S
C1022      C1088   1.617       .  S
O1023      V1031   2.031   1_665  S
O1023      C1033   1.308       .  A
O1024      C1034   1.317       .  A
O1025      C1035   1.231   1_455  A
O1026      C1036   1.233       .  A
O1027      C1036   1.314       .  A
O1028      C1035   1.319       .  A
O1029      V1032   1.843       .  S
O1029      C1034   1.229       .  A
O1030      C1033   1.211       .  A
C1033      C1052   1.595       .  S
C1034      C1053   1.613       .  S
C1035      C1087   1.621       .  S
C1036      C1086   1.620       .  S
O1037      V1045   1.845   1_556  S
O1037      C1047   1.250       .  A
O1038      V1045   1.873       .  S
O1038      C1048   1.253       .  A
O1039      V1045   1.909   1_556  S
O1039      C1049   1.269       .  A
O1040      V1045   1.887       .  S
O1040      C1050   1.265       .  A
O1041      V1046   1.826   1_554  S
O1041      C1050   1.244       .  A
O1042      V1046   1.839       .  S
O1042      C1049   1.247       .  A
O1043      V1046   1.877   1_554  S
O1043      C1048   1.260       .  A
O1044      V1046   1.866       .  S
O1044      C1047   1.261       .  A
V1045      V1046   2.088   1_554  T
C1047      C1336   1.436       .  S
C1048      C1316   1.438       .  S
C1049      C1306   1.443       .  S
C1050      C1329   1.419       .  S
C1051      C1276   1.563       .  S
C1051      C1289   1.692       .  S
C1051      C1299   1.555       .  S
C1052      C1246   1.541       .  S
C1052      C1256   1.693       .  S
C1052      C1269   1.595       .  S
C1053      C1226   1.501       .  S
C1053      C1239   1.654       .  S
C1053      C1319   1.570       .  S
C1054      C1206   1.524       .  S
C1054      C1219   1.676       .  S
C1054      C1309   1.550       .  S
C1055      C1259   1.609   1_545  S
C1055      C1286   1.592   1_554  S
C1056      C1216   1.579   1_554  S
C1056      C1236   1.594       .  S
O1057      V1065   1.883       .  S
O1057      C1067   1.260       .  A
O1058      V1065   1.880   1_556  S
O1058      C1068   1.263       .  A
O1059      V1065   1.872       .  S
O1059      C1069   1.255       .  A
O1060      V1065   1.854   1_556  S
O1060      C1070   1.252       .  A
O1061      V1066   1.891   1_556  S
O1061      C1070   1.263       .  A
O1062      V1066   1.905       .  S
O1062      C1069   1.268       .  A
O1063      V1066   1.879   1_556  S
O1063      C1068   1.255       .  A
O1064      V1066   1.859       .  S
O1064      C1067   1.256       .  A
V1065      V1066   2.087       .  T
C1067      C1189   1.436       .  S
C1068      C1296   1.444       .  S
C1069      C1266   1.455       .  S
C1070      C1196   1.428       .  S
O1071      V1079   1.853       .  S
O1071      C1081   1.253       .  A
O1072      V1079   1.859       .  S
O1072      C1082   1.253       .  A
O1073      V1079   1.864       .  S
O1073      C1083   1.258       .  A
O1074      V1079   1.848       .  S
O1074      C1084   1.247       .  A
O1075      V1080   1.866       .  S
O1075      C1084   1.254       .  A
O1076      V1080   1.866       .  S
O1076      C1083   1.257       .  A
O1077      V1080   1.891       .  S
O1077      C1082   1.264       .  A
O1078      V1080   1.905       .  S
O1078      C1081   1.264       .  A
V1079      V1080   2.090       .  T
C1081      C1279   1.444       .  S
C1082      C1169   1.439       .  S
C1083      C1176   1.436       .  S
C1084      C1249   1.407       .  S
C1085      C1159   1.641       .  S
C1085      C1179   1.543       .  S
C1085      C1339   1.528       .  S
C1086      C1149   1.657       .  S
C1086      C1166   1.559       .  S
C1086      C1326   1.506       .  S
C1087      C1126   1.664       .  S
C1087      C1139   1.546       .  S
C1087      C1186   1.544       .  S
C1088      C1106   1.679       .  S
C1088      C1116   1.554       .  S
C1088      C1199   1.540       .  S
C1089      C1146   1.573       .  S
C1089      C1156   1.593       .  S
C1090      C1109   1.596       .  S
C1090      C1129   1.591       .  S
O1091      V1099   1.880       .  S
O1091      C1101   1.259       .  A
O1092      V1099   1.892       .  S
O1092      C1102   1.263       .  A
O1093      V1099   1.899       .  S
O1093      C1103   1.265       .  A
O1094      V1099   1.883       .  S
O1094      C1104   1.258       .  A
O1095      V1100   1.855       .  S
O1095      C1104   1.253       .  A
O1096      V1100   1.883       .  S
O1096      C1103   1.257       .  A
O1097      V1100   1.863       .  S
O1097      C1102   1.257       .  A
O1098      V1100   1.847       .  S
O1098      C1101   1.247       .  A
V1099      V1100   2.091       .  T
C1101      C1229   1.420       .  S
C1102      C1119   1.449       .  S
C1103      C1136   1.458       .  S
C1104      C1209   1.422       .  S
C1105      C1106   1.440       .  A
C1105      C1110   1.421       .  A
C1105      H1112   1.074       .  S
C1106      C1107   1.440   1_655  A
C1107      C1108   1.464       .  A
C1107     Br1114   1.897       .  S
C1108      C1109   1.432   1_455  A
C1109      C1110   1.418       .  A
C1110     Br1111   1.918       .  S
C1115      C1116   1.423       .  A
C1115      C1120   1.389       .  A
C1115      H1122   1.076       .  S
C1116      C1117   1.440       .  A
C1117      C1118   1.378       .  A
C1117     Br1124   1.941       .  S
C1118      C1119   1.385       .  A
C1118      H1123   1.078       .  S
C1119      C1120   1.399       .  A
C1120     Br1121   1.924       .  S
C1125      C1126   1.432   1_455  A
C1125      C1130   1.462       .  A
C1125      H1132   1.082       .  S
C1126      C1127   1.453       .  A
C1127      C1128   1.421       .  A
C1127     Br1134   1.928       .  S
C1128      C1129   1.397       .  A
C1128      H1133   1.080       .  S
C1129      C1130   1.437   1_655  A
C1135      C1136   1.399       .  A
C1135      C1140   1.404       .  A
C1135      H1142   1.083       .  S
C1136      C1137   1.395       .  A
C1137      C1138   1.383       .  A
C1137     Br1144   1.903       .  S
C1138      C1139   1.415       .  A
C1138      H1143   1.082       .  S
C1139      C1140   1.426       .  A
C1140     Br1141   1.919       .  S
C1145      C1146   1.392       .  A
C1145      C1150   1.419       .  A
C1145      H1152   1.082       .  S
C1146      C1147   1.435       .  A
C1147      C1148   1.447       .  A
C1147     Br1154   1.917       .  S
C1148      C1149   1.417       .  A
C1148      H1153   1.069       .  S
C1149      C1150   1.458       .  A
C1150     Br1151   1.907       .  S
C1155      C1156   1.427       .  A
C1155      C1160   1.429       .  A
C1155      H1162   1.079       .  S
C1156      C1157   1.413       .  A
C1157      C1158   1.429       .  A
C1158      C1159   1.433       .  A
C1158      H1163   1.075       .  S
C1159      C1160   1.441       .  A
C1160     Br1161   1.919       .  S
C1165      C1166   1.419       .  A
C1165      C1170   1.375       .  A
C1165      H1172   1.077       .  S
C1166      C1167   1.452       .  A
C1167      C1168   1.393       .  A
C1167     Br1174   1.940       .  S
C1168      C1169   1.383       .  A
C1168      H1173   1.083       .  S
C1169      C1170   1.390       .  A
C1170     Br1171   1.924       .  S
C1175      C1176   1.394       .  A
C1175      C1180   1.379       .  A
C1175      H1182   1.084       .  S
C1176      C1177   1.402       .  A
C1177      C1178   1.377       .  A
C1177     Br1184   1.925       .  S
C1178      C1179   1.420       .  A
C1178      H1183   1.082       .  S
C1179      C1180   1.399       .  A
C1180     Br1181   1.873       .  S
C1185      C1186   1.416       .  A
C1185      C1190   1.377       .  A
C1185      H1192   1.080   1_655  S
C1186      C1187   1.440       .  A
C1187      C1188   1.381       .  A
C1187     Br1194   1.909       .  S
C1188      C1189   1.383       .  A
C1188      H1193   1.086       .  S
C1189      C1190   1.385       .  A
C1190     Br1191   1.897       .  S
C1195      C1196   1.385       .  A
C1195      C1200   1.376       .  A
C1195      H1202   1.086       .  S
C1196      C1197   1.393       .  A
C1197      C1198   1.390       .  A
C1197     Br1204   1.913       .  S
C1198      C1199   1.418       .  A
C1198      H1203   1.077       .  S
C1199      C1200   1.419       .  A
C1200     Br1201   1.908       .  S
C1205      C1206   1.404       .  A
C1205      C1210   1.366       .  A
C1205      H1212   1.077       .  S
C1206      C1207   1.439       .  A
C1207      C1208   1.390       .  A
C1207     Br1214   1.922       .  S
C1208      C1209   1.384       .  A
C1208      H1213   1.082       .  S
C1209      C1210   1.384       .  A
C1210     Br1211   1.899       .  S
C1215      C1216   1.395       .  A
C1215      C1220   1.427       .  A
C1215      H1222   1.084       .  S
C1216      C1217   1.432       .  A
C1217      C1218   1.445       .  A
C1218      C1219   1.423       .  A
C1218      H1223   1.068       .  S
C1219      C1220   1.467       .  A
C1220     Br1221   1.909       .  S
C1225      C1226   1.406       .  A
C1225      C1230   1.386       .  A
C1225      H1232   1.084       .  S
C1226      C1227   1.418       .  A
C1227      C1228   1.373       .  A
C1227     Br1234   1.919       .  S
C1228      C1229   1.390       .  A
C1228      H1233   1.085       .  S
C1229      C1230   1.393       .  A
C1230     Br1231   1.913       .  S
C1235      C1236   1.416       .  A
C1235      C1240   1.441       .  A
C1235      H1242   1.083       .  S
C1236      C1237   1.442       .  A
C1237      C1238   1.428       .  A
C1238      C1239   1.405       .  A
C1238      H1243   1.068       .  S
C1239      C1240   1.451       .  A
C1240     Br1241   1.915       .  S
C1245      C1246   1.420       .  A
C1245      C1250   1.372       .  A
C1245      H1252   1.083       .  S
C1246      C1247   1.434       .  A
C1247      C1248   1.373       .  A
C1247     Br1254   1.931       .  S
C1248      C1249   1.379       .  A
C1248      H1253   1.086       .  S
C1249      C1250   1.385       .  A
C1250     Br1251   1.915       .  S
C1255      C1256   1.440       .  A
C1255      C1260   1.434       .  A
C1255      H1262   1.073       .  S
C1256      C1257   1.458   1_565  A
C1257      C1258   1.449       .  A
C1257     Br1264   1.927       .  S
C1258      C1259   1.429   1_545  A
C1258      H1263   1.076       .  S
C1259      C1260   1.423       .  A
C1265      C1266   1.385       .  A
C1265      C1270   1.397       .  A
C1265      H1272   1.085       .  S
C1266      C1267   1.395       .  A
C1267      C1268   1.386       .  A
C1267     Br1274   1.919       .  S
C1268      C1269   1.416       .  A
C1268      H1273   1.065       .  S
C1269      C1270   1.449       .  A
C1270     Br1271   1.926       .  S
C1275      C1276   1.407       .  A
C1275      C1280   1.381       .  A
C1275      H1282   1.071       .  S
C1276      C1277   1.441       .  A
C1277      C1278   1.398       .  A
C1277     Br1284   1.901       .  S
C1278      C1279   1.384       .  A
C1278      H1283   1.084       .  S
C1279      C1280   1.390       .  A
C1280     Br1281   1.922       .  S
C1285      C1286   1.389   1_565  A
C1285      C1290   1.422       .  A
C1285      H1292   1.082       .  S
C1286      C1287   1.439       .  A
C1287      C1288   1.466       .  A
C1288      C1289   1.434   1_545  A
C1288      H1293   1.083       .  S
C1289      C1290   1.477       .  A
C1290     Br1291   1.931       .  S
C1295      C1296   1.380       .  A
C1295      C1300   1.376       .  A
C1295      H1302   1.073       .  S
C1296      C1297   1.397       .  A
C1297      C1298   1.400       .  A
C1297     Br1304   1.919       .  S
C1298      C1299   1.425       .  A
C1298      H1303   1.076       .  S
C1299      C1300   1.441       .  A
C1300     Br1301   1.942       .  S
C1305      C1306   1.389       .  A
C1305      C1310   1.404       .  A
C1305      H1312   1.084       .  S
C1306      C1307   1.391       .  A
C1307      C1308   1.358       .  A
C1307     Br1314   1.913       .  S
C1308      C1309   1.407       .  A
C1308      H1313   1.072       .  S
C1309      C1310   1.449       .  A
C1310     Br1311   1.934       .  S
C1315      C1316   1.393       .  A
C1315      C1320   1.406       .  A
C1315      H1322   1.085       .  S
C1316      C1317   1.375       .  A
C1317      C1318   1.360       .  A
C1317     Br1324   1.909       .  S
C1318      C1319   1.422       .  A
C1318      H1323   1.075       .  S
C1319      C1320   1.446       .  A
C1320     Br1321   1.922       .  S
C1325      C1326   1.402       .  A
C1325      C1330   1.370       .  A
C1325      H1332   1.081       .  S
C1326      C1327   1.420       .  A
C1327      C1328   1.380       .  A
C1327     Br1334   1.901       .  S
C1328      C1329   1.384       .  A
C1328      H1333   1.085       .  S
C1329      C1330   1.400       .  A
C1330     Br1331   1.912       .  S
C1335      C1336   1.389       .  A
C1335      C1340   1.372       .  A
C1335      H1342   1.076       .  S
C1336      C1337   1.404       .  A
C1337      C1338   1.374       .  A
C1337     Br1344   1.931       .  S
C1338      C1339   1.420       .  A
C1338      H1343   1.077       .  S
C1339      C1340   1.393       .  A
C1340     Br1341   1.861       .  S
