geometry optimzed in LAMMPS
_audit_creation_date              2020-11-30 
_audit_creation_method            'lammps2cif' 
_symmetry_space_group_name_H-M    'P1' 
_symmetry_Int_Tables_number       1 
_symmetry_cell_setting            triclinic 
loop_ 
_symmetry_equiv_pos_as_xyz 
  x,y,z 
_cell_length_a                    30.900661183283624 
_cell_length_b                    30.994664375068652 
_cell_length_c                    31.03838879048784 
_cell_angle_alpha                 90.26702515317457 
_cell_angle_beta                  91.83876923112786 
_cell_angle_gamma                 88.83492838506844 
loop_ 
_atom_site_label 
_atom_site_type_symbol 
_atom_site_fract_x 
_atom_site_fract_y 
_atom_site_fract_z 
_atom_site_charge 
C1          C  0.10778333  0.85956867  0.46457924     0.01100
C2          C  0.08818147  0.85531846  0.50476490     0.01100
C3          C  0.11466392  0.86281924  0.54223488     0.01100
C4          C  0.15528750  0.88432229  0.53953929     0.01100
C5          C  0.16514602  0.90296544  0.49924886     0.01100
C6          C  0.14683225  0.88391439  0.46139422     0.01100
C7          C  0.15104629  0.11522879  0.54219712     0.01100
C8          C  0.16040394  0.09184233  0.50391705     0.01100
C9          C  0.15207486  0.11169598  0.46284593     0.01100
C10         C  0.12494736  0.15008948  0.45875750     0.01100
C11         C  0.10130157  0.16159226  0.49623527     0.01100
C12         C  0.11806497  0.14919871  0.53786436     0.01100
C13         C  0.89510736  0.13703554  0.53190373     0.01100
C14         C  0.91299554  0.14281357  0.49046741     0.01100
C15         C  0.88604760  0.13343357  0.45364391     0.01100
C16         C  0.85544528  0.09982349  0.45842522     0.01100
C17         C  0.84892551  0.08164948  0.50005206     0.01100
C18         C  0.86079437  0.10669790  0.53741151     0.01100
C19         C  0.87403298  0.84219441  0.53479792     0.01100
C20         C  0.89730164  0.83248231  0.49654871     0.01100
C21         C  0.87503372  0.83944174  0.45592293     0.01100
C22         C  0.84116887  0.87267535  0.45500163     0.01100
C23         C  0.82781134  0.89334329  0.49400656     0.01100
C24         C  0.83667689  0.87134738  0.53410824     0.01100
C25         C  0.55232647  0.14376118  0.12973137     0.01100
C26         C  0.51181955  0.15649878  0.10932089     0.01100
C27         C  0.47220721  0.14842980  0.13135188     0.01100
C28         C  0.47230339  0.11196555  0.16005871     0.01100
C29         C  0.51323778  0.09262467  0.17471808     0.01100
C30         C  0.55305030  0.11477662  0.16603734     0.01100
C31         C  0.54361617  0.12168507  0.90297805     0.01100
C32         C  0.50429107  0.12699252  0.92388862     0.01100
C33         C  0.46458584  0.11924151  0.90124766     0.01100
C34         C  0.46366919  0.09827640  0.85986314     0.01100
C35         C  0.50388167  0.08211137  0.84321425     0.01100
C36         C  0.54371498  0.09942008  0.86257997     0.01100
C37         C  0.53672815  0.88629593  0.14928483     0.01100
C38         C  0.49694373  0.90449519  0.16014622     0.01100
C39         C  0.46012393  0.87881547  0.15134130     0.01100
C40         C  0.46325070  0.84684600  0.11697452     0.01100
C41         C  0.50459242  0.83760767  0.09804330     0.01100
C42         C  0.54317343  0.85364239  0.11916359     0.01100
C43         C  0.53942114  0.88434891  0.85727401     0.01100
C44         C  0.49992644  0.90409313  0.83930051     0.01100
C45         C  0.45937752  0.88788821  0.85306819     0.01100
C46         C  0.45844785  0.86027037  0.88993408     0.01100
C47         C  0.49737522  0.84925260  0.91264973     0.01100
C48         C  0.53774773  0.85802040  0.89499981     0.01100
C49         C  0.12249907  0.53806566  0.85728440     0.01100
C50         C  0.09992441  0.50060945  0.84366671     0.01100
C51         C  0.12136620  0.45911097  0.84793028     0.01100
C52         C  0.15666254  0.45445898  0.87948437     0.01100
C53         C  0.16996405  0.49246496  0.90298353     0.01100
C54         C  0.16072564  0.53476707  0.88467059     0.01100
C55         C  0.15627598  0.45781120  0.10670373     0.01100
C56         C  0.16736300  0.49772069  0.08916110     0.01100
C57         C  0.15455464  0.53646017  0.10999051     0.01100
C58         C  0.12672605  0.53645086  0.14679611     0.01100
C59         C  0.10176494  0.49753677  0.15174731     0.01100
C60         C  0.12106542  0.45787349  0.13525579     0.01100
C61         C  0.88745636  0.45348309  0.15401981     0.01100
C62         C  0.91229281  0.49240528  0.16016960     0.01100
C63         C  0.89279284  0.53204163  0.14321435     0.01100
C64         C  0.85757682  0.53210191  0.11260715     0.01100
C65         C  0.84694409  0.49252202  0.09380864     0.01100
C66         C  0.85798573  0.45369872  0.11644632     0.01100
C67         C  0.87192382  0.53895440  0.88814866     0.01100
C68         C  0.88962688  0.54033567  0.84568501     0.01100
C69         C  0.90988349  0.50136669  0.83073656     0.01100
C70         C  0.89242565  0.46182667  0.84488610     0.01100
C71         C  0.86861201  0.46045718  0.88360657     0.01100
C72         C  0.86436304  0.49864094  0.90798030     0.01100
O73         O  0.10109390  0.95400306  0.81399451    -0.81320
O74         O  0.22576371  0.03223641  0.91462808    -0.81340
O75         O  0.20685786  0.90788738  0.85286208    -0.81350
O76         O  0.15881548  0.08780298  0.78941681    -0.81290
O77         O  0.17579565  0.95941830  0.89112563    -0.81420
O78         O  0.11123826  0.04380254  0.81525971    -0.81340
O79         O  0.19838245  0.07340533  0.86156112    -0.81320
O80         O  0.14639747  0.90359253  0.79077776    -0.81360
C81         C  0.11051917  0.91456539  0.80732605     1.08370
C82         C  0.21077534  0.06884364  0.90140593     1.08250
C83         C  0.18696084  0.91973793  0.88625668     1.08390
C84         C  0.12180793  0.08163407  0.80556844     1.08270
O85         O  0.14866817  0.03671849  0.72886406    -0.81320
O86         O  0.26561737  0.96092240  0.86387736    -0.81400
O87         O  0.20479468  0.94193015  0.73123272    -0.81330
O88         O  0.25279702  0.09523141  0.79859411    -0.81310
O89         O  0.26623573  0.03747856  0.83889918    -0.81370
O90         O  0.13430562  0.95178095  0.72718212    -0.81330
O91         O  0.22011026  0.03687113  0.73727759    -0.81290
O92         O  0.26505427  0.94693507  0.79430936    -0.81360
Co93       Co  0.12659492  0.99666352  0.77444892     1.51530
Co94       Co  0.21349108  0.00228078  0.86160537     1.51690
Co95       Co  0.20537983  0.92909533  0.79235724     1.51570
Co96       Co  0.21151133  0.04875049  0.79962714     1.51470
O97         O  0.18544107  0.98985018  0.80473759    -1.43260
C98         C  0.18633703  0.04281405  0.71362555     1.08300
C99         C  0.28473020  0.94732901  0.83022850     1.08390
C100        C  0.16958491  0.93995153  0.71023403     1.08320
C101        C  0.27954211  0.07259343  0.82166648     1.08300
O102        O  0.05169121  0.11332090  0.82126722    -0.81320
O103        O  0.96571144  0.17907889  0.88740391    -0.81340
O104        O  0.09999719  0.21574800  0.84677034    -0.81350
O105        O  0.92712863  0.13666173  0.78308189    -0.81290
O106        O  0.05223224  0.18235150  0.88310507    -0.81420
O107        O  0.97781039  0.08329911  0.77454752    -0.81340
O108        O  0.91457400  0.20181203  0.84278873    -0.81320
O109        O  0.09848730  0.15157069  0.78697740    -0.81360
C110        C  0.08950363  0.11758313  0.80687274     1.08370
C111        C  0.92599942  0.18648882  0.87920156     1.08250
C112        C  0.08874928  0.19821150  0.88183309     1.08390
C113        C  0.93824290  0.09562614  0.77896053     1.08270
O114        O  0.97274264  0.14663654  0.72421703    -0.81320
O115        O  0.04644593  0.27382407  0.85098293    -0.81400
O116        O  0.05273355  0.20567618  0.72555464    -0.81330
O117        O  0.94728424  0.26755227  0.78806934    -0.81310
O118        O  0.95992239  0.26748044  0.85782152    -0.81370
O119        O  0.04372203  0.13562378  0.72829795    -0.81330
O120        O  0.95230263  0.21229291  0.72315053    -0.81290
O121        O  0.05343036  0.26998299  0.78105856    -0.81360
Co122      Co  0.00543450  0.13668325  0.78117574     1.51530
Co123      Co  0.00662938  0.22263758  0.86545876     1.51690
Co124      Co  0.07115245  0.21044625  0.78582042     1.51570
Co125      Co  0.94181809  0.20422075  0.78509183     1.51470
O126        O  0.00811364  0.19704333  0.80319928    -1.43260
C127        C  0.95651763  0.17766868  0.70349990     1.08300
C128        C  0.05637879  0.29109605  0.81506237     1.08390
C129        C  0.05263366  0.16958407  0.70690472     1.08320
C130        C  0.94843879  0.28717443  0.82377515     1.08300
O131        O  0.04667884  0.88409266  0.18301971    -0.81320
O132        O  0.96024907  0.81134004  0.11068330    -0.81340
O133        O  0.09851095  0.78503398  0.15743156    -0.81350
O134        O  0.90949003  0.83321391  0.20800136    -0.81290
O135        O  0.04976308  0.81643016  0.11529325    -0.81420
O136        O  0.95481749  0.87504708  0.17589866    -0.81340
O137        O  0.91566098  0.77498796  0.14955484    -0.81320
O138        O  0.09463329  0.84371008  0.21852759    -0.81360
C139        C  0.08534833  0.87809213  0.19771579     1.08370
C140        C  0.92229037  0.79885060  0.11748846     1.08250
C141        C  0.08827137  0.80395024  0.12183015     1.08390
C142        C  0.91698292  0.86770020  0.18791704     1.08270
O143        O  0.95590771  0.84942398  0.26769212    -0.81320
O144        O  0.05470855  0.72384302  0.14433308    -0.81400
O145        O  0.04893703  0.78522566  0.27571149    -0.81330
O146        O  0.96614002  0.71765341  0.20701222    -0.81310
O147        O  0.97003329  0.72135378  0.13691896    -0.81370
O148        O  0.04031863  0.85477028  0.27086263    -0.81330
O149        O  0.95847611  0.77893528  0.27040781    -0.81290
O150        O  0.05374599  0.72344635  0.21455720    -0.81360
Co151      Co  0.99966735  0.86161870  0.22021820     1.51530
Co152      Co  0.00853309  0.77219516  0.13114893     1.51690
Co153      Co  0.06841164  0.78447796  0.21570394     1.51570
Co154      Co  0.94345316  0.77685638  0.20872226     1.51470
O155        O  0.00505832  0.79934553  0.19359662    -1.43260
C156        C  0.94885646  0.81441433  0.28779209     1.08300
C157        C  0.06236744  0.70433026  0.18022158     1.08390
C158        C  0.04602857  0.82150336  0.29387933     1.08320
C159        C  0.96256418  0.70006037  0.17050472     1.08300
O160        O  0.21038175  0.84510119  0.09362700    -0.81320
O161        O  0.14921026  0.78747037  0.90945031    -0.81340
O162        O  0.17094243  0.89231921  0.95756051    -0.81350
O163        O  0.10857836  0.81558940  0.04775347    -0.81290
O164        O  0.20394114  0.85004855  0.91149300    -0.81420
O165        O  0.15522887  0.78364478  0.09277158    -0.81340
O166        O  0.10532333  0.81815570  0.95492638    -0.81320
O167        O  0.17286631  0.88742255  0.04928965    -0.81360
C168        C  0.18874396  0.88001742  0.08666825     1.08370
C169        C  0.11308915  0.80601950  0.91695256     1.08250
C170        C  0.18453063  0.88568194  0.91993816     1.08390
C171        C  0.11919462  0.80308205  0.08589119     1.08270
O172        O  0.21198738  0.72685665  0.04280707    -0.81320
O173        O  0.27012637  0.79542385  0.95592687    -0.81400
O174        O  0.26461051  0.86092358  0.04447688    -0.81330
O175        O  0.14120766  0.72716152  0.95585628    -0.81310
O176        O  0.21188883  0.72927833  0.95400813    -0.81370
O177        O  0.27135534  0.79087573  0.04412289    -0.81330
O178        O  0.14149996  0.72852019  0.04050348    -0.81290
O179        O  0.26151399  0.86502190  0.96127870    -0.81360
Co180      Co  0.21153675  0.78728450  0.06249175     1.51530
Co181      Co  0.20825303  0.79093328  0.93867154     1.51690
Co182      Co  0.21314926  0.87134551  0.00314441     1.51570
Co183      Co  0.12837750  0.77696399  0.99959005     1.51470
O184        O  0.18925040  0.80746612  0.00097691    -1.43260
C185        C  0.17680768  0.70746482  0.04554977     1.08300
C186        C  0.28578660  0.83259298  0.95381214     1.08390
C187        C  0.28840003  0.82714795  0.04870608     1.08320
C188        C  0.17762316  0.70839991  0.94807440     1.08300
O189        O  0.09827024  0.15070940  0.20494235    -0.81320
O190        O  0.91124067  0.20396033  0.15465807    -0.81340
O191        O  0.97703462  0.08493161  0.22583514    -0.81350
O192        O  0.04515321  0.18222296  0.09748823    -0.81290
O193        O  0.93571651  0.13429265  0.19151515    -0.81420
O194        O  0.09487722  0.20910127  0.14249914    -0.81340
O195        O  0.95735282  0.17589550  0.11036912    -0.81320
O196        O  0.04810340  0.10858573  0.17625787    -0.81360
C197        C  0.08748990  0.11473304  0.18823920     1.08370
C198        C  0.91912200  0.18698865  0.11799887     1.08250
C199        C  0.94143389  0.09604265  0.20608504     1.08390
C200        C  0.08426949  0.19118043  0.10657324     1.08270
O201        O  0.05332555  0.27118505  0.19868289    -0.81320
O202        O  0.90490933  0.19504963  0.24673020    -0.81400
O203        O  0.04759405  0.14031132  0.26394733    -0.81330
O204        O  0.95676024  0.26623299  0.14655537    -0.81310
O205        O  0.95854190  0.25866290  0.21728777    -0.81370
O206        O  0.05570808  0.21060548  0.26294457    -0.81330
O207        O  0.04136157  0.26903273  0.12876520    -0.81290
O208        O  0.96727106  0.16261127  0.26384117    -0.81360
Co209      Co  0.07161065  0.21034702  0.20196818     1.51530
Co210      Co  0.95221883  0.19650299  0.20709222     1.51690
Co211      Co  0.00408815  0.13843223  0.21290792     1.51570
Co212      Co  0.00017841  0.22049188  0.12367145     1.51470
O213        O  0.01163918  0.19400538  0.18263975    -1.43260
C214        C  0.05344051  0.28925047  0.16244324     1.08300
C215        C  0.92948605  0.17628972  0.27492504     1.08390
C216        C  0.05873874  0.17531713  0.28304315     1.08320
C217        C  0.95026725  0.28167875  0.18440804     1.08300
O218        O  0.15541499  0.90399312  0.21756125    -0.81320
O219        O  0.22098845  0.08744111  0.16144403    -0.81340
O220        O  0.11311738  0.04123226  0.17852163    -0.81350
O221        O  0.17969980  0.95297948  0.11324601    -0.81290
O222        O  0.15636185  0.08718438  0.21212237    -0.81420
O223        O  0.21050053  0.90411800  0.15593798    -0.81340
O224        O  0.18452418  0.04482097  0.11779440    -0.81320
O225        O  0.11306267  0.94926476  0.18166477    -0.81360
C226        C  0.11970415  0.91181561  0.19704968     1.08370
C227        C  0.19959222  0.08165685  0.12674406     1.08250
C228        C  0.12098919  0.07941373  0.19088993     1.08390
C229        C  0.19053448  0.91389246  0.12070947     1.08270
O230        O  0.27406653  0.94966236  0.21222600    -0.81320
O231        O  0.21153042  0.03877484  0.27718590    -0.81400
O232        O  0.14742699  0.95769001  0.27148423    -0.81330
O233        O  0.27555265  0.03363332  0.14761306    -0.81310
O234        O  0.27826282  0.03857528  0.21818337    -0.81370
O235        O  0.21808288  0.95082211  0.27481945    -0.81330
O236        O  0.27024528  0.94916453  0.14216677    -0.81290
O237        O  0.14144644  0.04032346  0.26882258    -0.81360
Co238      Co  0.21409481  0.93278465  0.21452592     1.51530
Co239      Co  0.21598801  0.05697835  0.21695269     1.51690
Co240      Co  0.13339604  0.99684631  0.22077345     1.51570
Co241      Co  0.22333804  0.99544404  0.13428916     1.51470
O242        O  0.19612783  0.99560221  0.19572379    -1.43260
C243        C  0.29130420  0.94189804  0.17715008     1.08300
C244        C  0.17479405  0.04322503  0.29331458     1.08390
C245        C  0.18277055  0.95004356  0.29316334     1.08320
C246        C  0.29733412  0.04094133  0.18264228     1.08300
O247        O  0.19048643  0.10719488  0.05631513    -0.81320
O248        O  0.09850102  0.21672684  0.95696711    -0.81340
O249        O  0.15294445  0.20802343  0.08819766    -0.81350
O250        O  0.22308268  0.14410594  0.91866524    -0.81290
O251        O  0.11576994  0.17469650  0.03627406    -0.81420
O252        O  0.19602972  0.10237344  0.96842508    -0.81340
O253        O  0.15512126  0.19110796  0.92195944    -0.81320
O254        O  0.21693233  0.15205138  0.10477800    -0.81360
C255        C  0.19985153  0.11602809  0.09486782     1.08370
C256        C  0.11479426  0.20181419  0.92246766     1.08250
C257        C  0.11915194  0.18894317  0.07502037     1.08390
C258        C  0.20866234  0.10723955  0.93039487     1.08270
O259        O  0.28048568  0.13535633  0.97537873    -0.81320
O260        O  0.13942226  0.26318741  0.03020956    -0.81400
O261        O  0.27576738  0.21025450  0.06332507    -0.81330
O262        O  0.22105747  0.24414752  0.90605092    -0.81310
O263        O  0.17579489  0.25921661  0.95840052    -0.81370
O264        O  0.28073305  0.13928601  0.06190265    -0.81330
O265        O  0.27822089  0.20579364  0.96627888    -0.81290
O266        O  0.20848633  0.26679212  0.04823825    -0.81360
Co267      Co  0.23396530  0.12384313  0.01557257     1.51530
Co268      Co  0.14875358  0.20917074  0.99376028     1.51690
Co269      Co  0.21390548  0.20856578  0.07211034     1.51570
Co270      Co  0.21566504  0.20171263  0.95159431     1.51470
O271        O  0.20500867  0.18282358  0.01257805    -1.43260
C272        C  0.29886941  0.17002895  0.96578347     1.08300
C273        C  0.17109889  0.28404008  0.04680653     1.08390
C274        C  0.29724126  0.17612491  0.07051237     1.08320
C275        C  0.19752307  0.27186124  0.92605434     1.08300
O276        O  0.86665029  0.08172801  0.21283395    -0.81320
O277        O  0.80376964  0.90951060  0.14391958    -0.81340
O278        O  0.89667190  0.94002486  0.17769472    -0.81350
O279        O  0.81405487  0.03979471  0.09876288    -0.81290
O280        O  0.84699698  0.89679748  0.20280098    -0.81420
O281        O  0.81481855  0.08787913  0.14804199    -0.81340
O282        O  0.81001862  0.95805754  0.09592107    -0.81320
O283        O  0.90953317  0.02975504  0.18645432    -0.81360
C284        C  0.90411645  0.06783174  0.20064715     1.08370
C285        C  0.81082051  0.91929352  0.10621108     1.08250
C286        C  0.88452109  0.90252081  0.18718312     1.08390
C287        C  0.81777915  0.07821702  0.10910620     1.08270
O288        O  0.76672040  0.09977545  0.21243544    -0.81320
O289        O  0.79351733  0.95259359  0.26151676    -0.81400
O290        O  0.87293914  0.02638945  0.26843613    -0.81330
O291        O  0.73749859  0.95506951  0.15740198    -0.81310
O292        O  0.75095325  0.90045248  0.20370667    -0.81370
O293        O  0.80287584  0.03581013  0.26326240    -0.81330
O294        O  0.74315462  0.04779845  0.16643768    -0.81290
O295        O  0.86315788  0.94186934  0.26288235    -0.81360
Co296      Co  0.80765763  0.05394874  0.20254255     1.51530
Co297      Co  0.79643439  0.94014793  0.19904555     1.51690
Co298      Co  0.88302274  0.98493875  0.22008633     1.51570
Co299      Co  0.78048213  0.00016369  0.13391900     1.51470
O300        O  0.82715556  0.99451513  0.18459299    -1.43260
C301        C  0.73559766  0.08133728  0.19137015     1.08300
C302        C  0.82768677  0.94099072  0.28210164     1.08390
C303        C  0.83759745  0.03567010  0.28602172     1.08320
C304        C  0.72478553  0.92146322  0.17837938     1.08300
O305        O  0.79658202  0.14751734  0.08412045    -0.81320
O306        O  0.85741152  0.20733826  0.90372341    -0.81340
O307        O  0.83171804  0.10852374  0.94565328    -0.81350
O308        O  0.89456440  0.17256664  0.04498831    -0.81290
O309        O  0.79745556  0.15144556  0.89930604    -0.81420
O310        O  0.85159401  0.20838167  0.08833633    -0.81340
O311        O  0.89939262  0.17229083  0.95095720    -0.81320
O312        O  0.83051831  0.10556836  0.03806352    -0.81360
C313        C  0.81735926  0.11262177  0.07591278     1.08370
C314        C  0.89248041  0.18645925  0.91283939     1.08250
C315        C  0.81824777  0.11639719  0.90735460     1.08390
C316        C  0.88628844  0.18714697  0.08248256     1.08270
O317        O  0.79710233  0.26785977  0.03862916    -0.81320
O318        O  0.73673295  0.20900167  0.94456250    -0.81400
O319        O  0.74039942  0.13282051  0.03176211    -0.81330
O320        O  0.87082809  0.26245713  0.95442964    -0.81310
O321        O  0.80076502  0.27024737  0.94806026    -0.81370
O322        O  0.73318973  0.20269281  0.03683367    -0.81330
O323        O  0.86782863  0.26142391  0.03724490    -0.81290
O324        O  0.74194533  0.13840022  0.94718502    -0.81360
Co325      Co  0.79498975  0.20634097  0.05550712     1.51530
Co326      Co  0.79834045  0.20896145  0.93010055     1.51690
Co327      Co  0.79017509  0.12583158  0.99079095     1.51570
Co328      Co  0.87861913  0.21278439  0.99662838     1.51470
O329        O  0.81570614  0.18822455  0.99338420    -1.43260
C330        C  0.83427649  0.28448895  0.04288549     1.08300
C331        C  0.71904143  0.17276752  0.94237589     1.08390
C332        C  0.71768230  0.16563720  0.04227358     1.08320
C333        C  0.83773934  0.28662537  0.94674208     1.08300
O334        O  0.08986822  0.84504875  0.79156077    -0.81320
O335        O  0.92113354  0.80044242  0.85494799    -0.81340
O336        O  0.96453090  0.91705913  0.78013868    -0.81350
O337        O  0.04144071  0.82134101  0.88410580    -0.81290
O338        O  0.92089744  0.86131454  0.79147138    -0.81420
O339        O  0.08912550  0.78269830  0.84888252    -0.81340
O340        O  0.96564897  0.78485265  0.91219674    -0.81320
O341        O  0.04005565  0.88515041  0.82307274    -0.81360
C342        C  0.07866824  0.87986470  0.81018433     1.08370
C343        C  0.92864850  0.79763155  0.89628935     1.08250
C344        C  0.92723266  0.90231306  0.78901755     1.08390
C345        C  0.07955557  0.80517220  0.88158944     1.08270
O346        O  0.04771943  0.72553013  0.79135916    -0.81320
O347        O  0.94001016  0.78893574  0.72814604    -0.81400
O348        O  0.03689890  0.86628156  0.73366987    -0.81330
O349        O  0.95672623  0.72973760  0.84962363    -0.81310
O350        O  0.94071524  0.73418571  0.78274064    -0.81370
O351        O  0.05116257  0.79576170  0.72634281    -0.81330
O352        O  0.03251079  0.73063700  0.86117753    -0.81290
O353        O  0.96156362  0.85369494  0.72377049    -0.81360
Co354      Co  0.06525608  0.78658705  0.78861051     1.51530
Co355      Co  0.93617983  0.79620126  0.78988227     1.51690
Co356      Co  0.99513655  0.86291011  0.78118464     1.51570
Co357      Co  0.99439106  0.78374668  0.85937329     1.51470
O358        O  0.00271772  0.80192091  0.79929463    -1.43260
C359        C  0.04606343  0.70862491  0.82896883     1.08300
C360        C  0.94543903  0.82097103  0.70582910     1.08390
C361        C  0.05245221  0.83464486  0.71212969     1.08320
C362        C  0.94199313  0.71245077  0.81567547     1.08300
O363        O  0.90829133  0.03082856  0.75007939    -0.81320
O364        O  0.82549627  0.95100065  0.88461193    -0.81340
O365        O  0.80058468  0.09304561  0.83648992    -0.81350
O366        O  0.85255550  0.91491149  0.77812291    -0.81290
O367        O  0.83027585  0.04422698  0.88020572    -0.81420
O368        O  0.89100471  0.96860064  0.80449232    -0.81340
O369        O  0.79421847  0.90434581  0.84026218    -0.81320
O370        O  0.86677460  0.07243029  0.79075383    -0.81360
C371        C  0.90346692  0.06419559  0.77349159     1.08370
C372        C  0.81298667  0.91274942  0.87638876     1.08250
C373        C  0.81879838  0.08325433  0.87270772     1.08390
C374        C  0.88852203  0.92996576  0.79218866     1.08270
O375        O  0.85291876  0.96558194  0.71694717    -0.81320
O376        O  0.74090608  0.04556067  0.85177303    -0.81400
O377        O  0.79729522  0.10777568  0.74538624    -0.81330
O378        O  0.72785368  0.94737404  0.78818228    -0.81310
O379        O  0.73610868  0.95918383  0.85775741    -0.81370
O380        O  0.82485628  0.04629923  0.72065050    -0.81330
O381        O  0.78384397  0.95541906  0.72257061    -0.81290
O382        O  0.73706467  0.05277725  0.78074079    -0.81360
Co383      Co  0.85608851  0.00795358  0.76818246     1.51530
Co384      Co  0.78599235  0.99986006  0.86512646     1.51690
Co385      Co  0.80112500  0.05723046  0.78237826     1.51570
Co386      Co  0.79009129  0.93482524  0.78266387     1.51470
O387        O  0.80493939  0.99546681  0.80326329    -1.43260
C388        C  0.81707123  0.95252854  0.70036301     1.08300
C389        C  0.71924917  0.05441502  0.81711582     1.08390
C390        C  0.80904143  0.08477630  0.71352937     1.08320
C391        C  0.71280862  0.94711466  0.82549857     1.08300
O392        O  0.82536537  0.88938036  0.03764962    -0.81320
O393        O  0.89519413  0.81917837  0.96080384    -0.81340
O394        O  0.85050732  0.78761712  0.09331027    -0.81350
O395        O  0.79368251  0.84322188  0.90235267    -0.81290
O396        O  0.89168672  0.82163121  0.04973358    -0.81420
O397        O  0.82580269  0.88593202  0.94865851    -0.81340
O398        O  0.85653991  0.78521080  0.91103384    -0.81320
O399        O  0.79320184  0.84957253  0.08509064    -0.81360
C400        C  0.81230558  0.88401117  0.07514574     1.08370
C401        C  0.89137495  0.80332007  0.92344698     1.08250
C402        C  0.88598875  0.80591217  0.08631266     1.08390
C403        C  0.81299756  0.87848947  0.91037905     1.08270
O404        O  0.73543680  0.85648785  0.95017895    -0.81320
O405        O  0.86587847  0.72990175  0.04595843    -0.81400
O406        O  0.73251027  0.79226880  0.03928395    -0.81330
O407        O  0.79954256  0.72593536  0.95496991    -0.81310
O408        O  0.86947035  0.73071881  0.96344405    -0.81370
O409        O  0.73482608  0.86238366  0.03463654    -0.81330
O410        O  0.73520038  0.78597300  0.94808031    -0.81290
O411        O  0.79525682  0.72715935  0.04625014    -0.81360
Co412      Co  0.78444110  0.86890472  0.99313772     1.51530
Co413      Co  0.87593018  0.77963138  0.00462625     1.51690
Co414      Co  0.79320893  0.78958720  0.06009790     1.51570
Co415      Co  0.79659835  0.78582203  0.93475421     1.51470
O416        O  0.81277118  0.80626159  0.99806002    -1.42540
C417        C  0.71514294  0.82145416  0.94483756     1.08300
C418        C  0.83180806  0.70836522  0.05122824     1.08390
C419        C  0.71440299  0.82860310  0.04430428     1.08320
C420        C  0.83644757  0.70832257  0.95513558     1.08300
C421        C  0.88263014  0.66106318  0.82827005    -0.10340
C422        C  0.92464530  0.66848069  0.81459956     0.05860
C423        C  0.94570110  0.63463095  0.79300012    -0.04110
C424        C  0.93261265  0.59225296  0.79912801    -0.08560
C425        C  0.89596291  0.58348938  0.82330958     0.04970
C426        C  0.86683121  0.61884476  0.82821674    -0.03580
Br427      Br  0.80541184  0.61104244  0.82567670    -0.03280
H428        H  0.86159356  0.68796841  0.83671450     0.08880
H429        H  0.95044665  0.56739337  0.78322306     0.06900
Br430      Br  0.98634028  0.64511584  0.74931450    -0.03700
C431        C  0.88573280  0.65083410  0.93356364    -0.10340
C432        C  0.84331833  0.66296639  0.94286506     0.05860
C433        C  0.81065707  0.63195104  0.93945084    -0.04110
C434        C  0.82111640  0.59063667  0.92398516    -0.08560
C435        C  0.86383232  0.57927587  0.91323340     0.04970
C436        C  0.89658185  0.60941278  0.92151034    -0.03580
Br437      Br  0.95672209  0.60048802  0.91392517    -0.03280
H438        H  0.91152423  0.67401722  0.93550694     0.08880
H439        H  0.79508110  0.56880229  0.91666129     0.06900
Br440      Br  0.75143016  0.64400278  0.95285052    -0.03700
C441        C  0.94744126  0.40521399  0.85340629    -0.10340
C442        C  0.91128238  0.42063696  0.83002026     0.05860
C443        C  0.88844579  0.39274435  0.80216672    -0.04110
C444        C  0.90145556  0.34925355  0.79950711    -0.08560
C445        C  0.93543471  0.33297619  0.82643836     0.04970
C446        C  0.95768014  0.36167602  0.85438571    -0.03580
Br447      Br  0.00255445  0.34605893  0.89533848    -0.03280
H448        H  0.96456077  0.42635064  0.87562159     0.08880
H449        H  0.88397806  0.32786288  0.77777834     0.06900
Br450      Br  0.83868953  0.41256729  0.76905419    -0.03700
C451        C  0.88937272  0.39501195  0.92717715    -0.10340
C452        C  0.85737072  0.41784712  0.90348120     0.05860
C453        C  0.81635350  0.39907459  0.89816853    -0.04110
C454        C  0.80945653  0.35701062  0.91374305    -0.08560
C455        C  0.84336429  0.33280890  0.93431197     0.04970
C456        C  0.88346277  0.35308307  0.94115233    -0.03580
Br457      Br  0.93335275  0.32551236  0.96715149    -0.03280
H458        H  0.92067621  0.40868178  0.93271025     0.08880
H459        H  0.77798660  0.34281770  0.90850041     0.06900
Br460      Br  0.76928948  0.42986428  0.86992996    -0.03700
C461        C  0.89327254  0.60226157  0.18130577    -0.10340
C462        C  0.91207890  0.57453108  0.15117831     0.05860
C463        C  0.94596092  0.58901781  0.12594098    -0.04110
C464        C  0.96311535  0.62953142  0.13397479    -0.08560
C465        C  0.94586273  0.65651020  0.16578001     0.04970
C466        C  0.91011034  0.64302018  0.18908760    -0.03580
Br467      Br  0.88131049  0.67931659  0.23002139    -0.03280
H468        H  0.86580472  0.59184141  0.19912903     0.08880
H469        H  0.98986917  0.64008748  0.11517937     0.06900
Br470      Br  0.97086309  0.55312815  0.08194095    -0.03700
C471        C  0.80442813  0.64342942  0.09035038    -0.10340
C472        C  0.83540355  0.66181371  0.06383781     0.05860
C473        C  0.87019940  0.63508388  0.05075249    -0.04110
C474        C  0.87021903  0.59093293  0.05936198    -0.08560
C475        C  0.84360069  0.57398330  0.09054093     0.04970
C476        C  0.80986194  0.60072954  0.10571315    -0.03580
Br477      Br  0.77181784  0.58053185  0.14839482    -0.03280
H478        H  0.77783244  0.66320273  0.10175895     0.08880
H479        H  0.89467827  0.57071148  0.04535858     0.06900
Br480      Br  0.92312134  0.65674615  0.02909440    -0.03700
C481        C  0.88663197  0.33269136  0.17412643    -0.10340
C482        C  0.92930449  0.32529556  0.18933668     0.05860
C483        C  0.94881327  0.35921443  0.21274445    -0.04110
C484        C  0.93170564  0.40194815  0.20834615    -0.08560
C485        C  0.89590099  0.41067569  0.17977355     0.04970
C486        C  0.86859058  0.37473602  0.17459251    -0.03580
Br487      Br  0.80773300  0.38077906  0.18308974    -0.03280
H488        H  0.86666320  0.30572028  0.16463055     0.08880
H489        H  0.94726878  0.42771905  0.22598057     0.06900
Br490      Br  0.99605445  0.34706538  0.25254476    -0.03700
C491        C  0.80390923  0.35693595  0.06237337    -0.10340
C492        C  0.84024097  0.32978036  0.05685223     0.05860
C493        C  0.88205292  0.34622482  0.06689371    -0.04110
C494        C  0.88635596  0.38817824  0.08151076    -0.08560
C495        C  0.85013869  0.41294240  0.09221396     0.04970
C496        C  0.80843556  0.39805515  0.08059840    -0.03580
Br497      Br  0.75649861  0.42918436  0.09450245    -0.03280
H498        H  0.77169920  0.34532744  0.05489701     0.08880
H499        H  0.91848701  0.40006492  0.08911920     0.06900
Br500      Br  0.93546152  0.31351342  0.06951015    -0.03700
C501        C  0.81697052  0.50153662  0.97283712    -0.10340
C502        C  0.85825782  0.49558078  0.95561655     0.05860
C503        C  0.89362641  0.48647546  0.98442154    -0.04110
C504        C  0.88724098  0.48279657  0.02817110    -0.08560
C505        C  0.84689921  0.49124322  0.04568533     0.04970
C506        C  0.81155971  0.50229881  0.01765807    -0.03580
Br507      Br  0.75697362  0.52261046  0.03798570    -0.03280
H508        H  0.78907754  0.50714554  0.95155319     0.08880
H509        H  0.91496836  0.47568159  0.04945487     0.06900
Br510      Br  0.95258109  0.48009668  0.96889591    -0.03700
C511        C  0.07080104  0.62765765  0.20838048    -0.10340
C512        C  0.08546709  0.66173647  0.18283667     0.05860
C513        C  0.12760975  0.65660056  0.16773773    -0.04110
C514        C  0.14632536  0.61516454  0.16595685    -0.08560
C515        C  0.12150575  0.57861445  0.17371487     0.04970
C516        C  0.09209528  0.58665786  0.20685538    -0.03580
Br517      Br  0.08770985  0.54755330  0.25412148    -0.03280
H518        H  0.04422851  0.63302566  0.22979603     0.08880
H519        H  0.18003075  0.61172355  0.15900404     0.06900
Br520      Br  0.16333088  0.70483165  0.15737929    -0.03700
C521        C  0.20447401  0.59406912  0.08651704    -0.10340
C522        C  0.16269814  0.57701436  0.08629917     0.05860
C523        C  0.12848251  0.59989433  0.06560600    -0.04110
C524        C  0.13471707  0.64136798  0.05091414    -0.08560
C525        C  0.17499214  0.66118357  0.05640670     0.04970
C526        C  0.21080184  0.63640080  0.07283058    -0.03580
Br527      Br  0.26823060  0.65838495  0.07998253    -0.03280
H528        H  0.23121894  0.57623601  0.10173929     0.08880
H529        H  0.10725144  0.65862315  0.03620269     0.06900
Br530      Br  0.07233651  0.57660433  0.05729830    -0.03700
C531        C  0.05530306  0.35696684  0.12188532    -0.10340
C532        C  0.06968729  0.33307153  0.15801613     0.05860
C533        C  0.10100498  0.35059813  0.18690748    -0.04110
C534        C  0.11694116  0.39150563  0.17915072    -0.08560
C535        C  0.10234106  0.41522652  0.14305052     0.04970
C536        C  0.07147875  0.39751530  0.11404260    -0.03580
Br537      Br  0.04696760  0.42881211  0.06583050    -0.03280
H538        H  0.03107923  0.34415213  0.09958308     0.08880
H539        H  0.14100294  0.40496510  0.20123947     0.06900
Br540      Br  0.12524380  0.32027188  0.23615587    -0.03700
C541        C  0.18918952  0.38266865  0.11714927    -0.10340
C542        C  0.17397733  0.41520799  0.08869759     0.05860
C543        C  0.16601059  0.40202169  0.04556398    -0.04110
C544        C  0.14981416  0.36089405  0.03834931    -0.08560
C545        C  0.16579726  0.32774064  0.06513783     0.04970
C546        C  0.18645737  0.33896883  0.10498622    -0.03580
Br547      Br  0.20790403  0.29592924  0.14488691    -0.03280
H548        H  0.20020317  0.39100184  0.14952363     0.08880
H549        H  0.13848307  0.35273278  0.00608958     0.06900
Br550      Br  0.21643263  0.40120903  0.01096641    -0.03700
C551        C  0.02617522  0.53367202  0.17023047    -0.10340
C552        C  0.05410523  0.49723857  0.16651332     0.05860
C553        C  0.03303826  0.45862117  0.17546213    -0.04110
C554        C  0.98881215  0.45624911  0.16305226    -0.08560
C555        C  0.96101194  0.49130327  0.17322938     0.04970
C556        C  0.98402624  0.52851874  0.18601823    -0.03580
Br557      Br  0.96943449  0.55892716  0.23764358    -0.03280
H558        H  0.03465861  0.56506308  0.15927310     0.08880
H559        H  0.97712712  0.42726221  0.14757087     0.06900
Br560      Br  0.04627897  0.43963504  0.23304982    -0.03700
C561        C  0.08940332  0.60703185  0.88404952    -0.10340
C562        C  0.10092658  0.58104639  0.84897243     0.05860
C563        C  0.09512765  0.59775855  0.80713045    -0.04110
C564        C  0.07811990  0.63956812  0.80140726    -0.08560
C565        C  0.06323308  0.66417281  0.83647426     0.04970
C566        C  0.06886640  0.64689554  0.87849250    -0.03580
Br567      Br  0.05252248  0.67524306  0.93110607    -0.03280
H568        H  0.09802198  0.59689627  0.91654070     0.08880
H569        H  0.07692871  0.65290886  0.76922757     0.06900
Br570      Br  0.11506914  0.56702257  0.75756381    -0.03700
C571        C  0.18349225  0.61290972  0.86864668    -0.10340
C572        C  0.18456291  0.57718899  0.89713706     0.05860
C573        C  0.20246938  0.58709578  0.93827764    -0.04110
C574        C  0.19431253  0.62846062  0.95588876    -0.08560
C575        C  0.18058766  0.66336070  0.92964585     0.04970
C576        C  0.17978723  0.65565477  0.88470735    -0.03580
Br577      Br  0.17277578  0.70206533  0.84437176    -0.03280
H578        H  0.17974795  0.60759816  0.83427710     0.08880
H579        H  0.20828357  0.63563039  0.98712203     0.06900
Br580      Br  0.26348585  0.57492991  0.94536560    -0.03700
C581        C  0.11781719  0.34336426  0.80680955    -0.10340
C582        C  0.07376679  0.33505334  0.81247681     0.05860
C583        C  0.04551321  0.37010955  0.80909790    -0.04110
C584        C  0.05977750  0.40935635  0.82492251    -0.08560
C585        C  0.10406644  0.41931009  0.82482752     0.04970
C586        C  0.13207087  0.38650412  0.80837099    -0.03580
Br587      Br  0.18896014  0.39874252  0.78946944    -0.03280
H588        H  0.14049541  0.31709120  0.80084578     0.08880
H589        H  0.03580801  0.42915797  0.83990983     0.06900
Br590      Br  0.00378160  0.37119091  0.76214490    -0.03700
C591        C  0.13925266  0.37953851  0.90456032    -0.10340
C592        C  0.17119799  0.40891095  0.89461798     0.05860
C593        C  0.21448012  0.39214588  0.89497713    -0.04110
C594        C  0.22350397  0.34723065  0.90279692    -0.08560
C595        C  0.19016313  0.31860851  0.91296030     0.04970
C596        C  0.14805283  0.33687778  0.91528977    -0.03580
Br597      Br  0.09853069  0.30711013  0.93333849    -0.03280
H598        H  0.10561175  0.38881943  0.90176859     0.08880
H599        H  0.25659934  0.33515763  0.90220879     0.06900
Br600      Br  0.26174393  0.42866027  0.88274484    -0.03700
C601        C  0.21120413  0.49584546  0.97487542    -0.10340
C602        C  0.17240774  0.48916827  0.95113537     0.05860
C603        C  0.13456757  0.48277305  0.97465093    -0.04110
C604        C  0.13413397  0.49232584  0.01797280    -0.08560
C605        C  0.17220402  0.49904294  0.04171780     0.04970
C606        C  0.21151328  0.50108283  0.02016664    -0.03580
Br607      Br  0.26586678  0.50467969  0.05121801    -0.03280
H608        H  0.24142421  0.49401720  0.95845072     0.08880
H609        H  0.10431239  0.48880123  0.03471793     0.06900
Br610      Br  0.08730829  0.44710624  0.95757461    -0.03700
C611        C  0.03010163  0.49662921  0.79541989    -0.10340
C612        C  0.05126822  0.50523660  0.83582582     0.05860
C613        C  0.02458306  0.51462673  0.87099883    -0.04110
C614        C  0.98018274  0.51150949  0.86669115    -0.08560
C615        C  0.95871255  0.50179691  0.82825536     0.04970
C616        C  0.98411537  0.49371330  0.79180070    -0.03580
Br617      Br  0.95710652  0.48081759  0.73709578    -0.03280
H618        H  0.04927957  0.48961627  0.76757506     0.08880
H619        H  0.96116802  0.51702633  0.89435293     0.06900
Br620      Br  0.04352843  0.53315365  0.92716639    -0.03700
C621        C  0.60766427  0.92156002  0.87768221    -0.10340
C622        C  0.58367726  0.90012966  0.84556179     0.05860
C623        C  0.60216496  0.89542281  0.80492110    -0.04110
C624        C  0.64397074  0.91151984  0.79827003    -0.08560
C625        C  0.66868797  0.93043293  0.83245350     0.04970
C626        C  0.65031529  0.93291214  0.87337075    -0.03580
Br627      Br  0.68046478  0.94911552  0.92641643    -0.03280
H628        H  0.59253967  0.92961671  0.90712089     0.08880
H629        H  0.65734726  0.90852453  0.76655771     0.06900
Br630      Br  0.57148036  0.86800914  0.75815905    -0.03700
C631        C  0.64429192  0.85178798  0.96120165    -0.10340
C632        C  0.66799183  0.82320178  0.93632693     0.05860
C633        C  0.64658794  0.80002261  0.90318319    -0.04110
C634        C  0.60256497  0.80895968  0.89343805    -0.08560
C635        C  0.57929593  0.84080248  0.91624282     0.04970
C636        C  0.60079952  0.86065234  0.95246781    -0.03580
Br637      Br  0.58120591  0.90818046  0.98688363    -0.03280
H638        H  0.66080932  0.87011665  0.98623919     0.08880
H639        H  0.58731295  0.79339625  0.86572852     0.06900
Br640      Br  0.67703680  0.76014794  0.86711706    -0.03700
C641        C  0.40436178  0.94776830  0.84107844    -0.10340
C642        C  0.41658098  0.90424989  0.83545708     0.05860
C643        C  0.38398182  0.87524375  0.82181334    -0.04110
C644        C  0.34028403  0.88843227  0.82343803    -0.08560
C645        C  0.32973360  0.93187978  0.83180761     0.04970
C646        C  0.36257178  0.96154634  0.82941101    -0.03580
Br647      Br  0.35735500  0.99971915  0.78096854    -0.03280
H648        H  0.42726296  0.97116188  0.85280128     0.08880
H649        H  0.31493896  0.86537771  0.81721127     0.06900
Br650      Br  0.39769859  0.81783033  0.80286246    -0.03700
C651        C  0.39044777  0.88601089  0.92434167    -0.10340
C652        C  0.41608642  0.85110614  0.91074416     0.05860
C653        C  0.40008599  0.80909182  0.91545711    -0.04110
C654        C  0.35821094  0.80335346  0.93083266    -0.08560
C655        C  0.33143145  0.83900778  0.94135549     0.04970
C656        C  0.34868862  0.88073073  0.93825254    -0.03580
Br657      Br  0.31727128  0.93340284  0.94858672    -0.03280
H658        H  0.40176140  0.91848668  0.92135326     0.08880
H659        H  0.34613535  0.77092619  0.93318754     0.06900
Br660      Br  0.43262978  0.75882424  0.89854487    -0.03700
C661        C  0.60449814  0.86708139  0.19441127    -0.10340
C662        C  0.57537358  0.90230858  0.16610867     0.05860
C663        C  0.59894048  0.93970757  0.13906791    -0.04110
C664        C  0.65016370  0.94270609  0.14225551    -0.08560
C665        C  0.67916620  0.90928306  0.17118006     0.04970
C666        C  0.65649406  0.87055584  0.19612869    -0.03580
Br667      Br  0.68954230  0.82906254  0.22937013    -0.03280
H668        H  0.58932114  0.83993786  0.20920183     0.08880
H669        H  0.66535738  0.96754957  0.12396933     0.06900
Br670      Br  0.57285915  0.96923267  0.09071079    -0.03700
C671        C  0.59941877  0.80994367  0.07882243    -0.10340
C672        C  0.59115018  0.84505141  0.10613822     0.05860
C673        C  0.62888364  0.87086062  0.12307336    -0.04110
C674        C  0.66679497  0.86539518  0.09680253    -0.08560
C675        C  0.67220194  0.83238885  0.06629769     0.04970
C676        C  0.63901876  0.80286412  0.05969760    -0.03580
Br677      Br  0.64422966  0.75357700  0.02232982    -0.03280
H678        H  0.57484402  0.78686353  0.07275013     0.08880
H679        H  0.69421217  0.88628730  0.10021959     0.06900
Br680      Br  0.62223767  0.94261511  0.21858217    -0.03700
C681        C  0.36906074  0.94540819  0.19514274    -0.10340
C682        C  0.33438781  0.92223334  0.17763408     0.05860
C683        C  0.34047497  0.87781347  0.17015810    -0.04110
C684        C  0.38258696  0.86072977  0.16985224    -0.08560
C685        C  0.41794535  0.88839765  0.17367439     0.04970
C686        C  0.41025445  0.92636989  0.19758334    -0.03580
Br687      Br  0.43767255  0.93193828  0.25347944    -0.03280
H688        H  0.36294173  0.97518548  0.21229892     0.08880
H689        H  0.38741414  0.82661764  0.16491650     0.06900
Br690      Br  0.29307403  0.83923147  0.16361149    -0.03700
C691        C  0.39985312  0.87149020  0.07235535    -0.10340
C692        C  0.42250029  0.83666498  0.09104342     0.05860
C693        C  0.40220126  0.79631923  0.09067515    -0.04110
C694        C  0.35946481  0.79303765  0.07370068    -0.08560
C695        C  0.33529977  0.83019009  0.06032453     0.04970
C696        C  0.35631005  0.87007164  0.06098097    -0.03580
Br697      Br  0.32789500  0.92570784  0.05606712    -0.03280
H698        H  0.41455308  0.90175256  0.07165145     0.08880
H699        H  0.34391977  0.76208043  0.07474674     0.06900
Br700      Br  0.42709992  0.74799709  0.12139158    -0.03700
C701        C  0.50321576  0.80200814  0.97883599    -0.10340
C702        C  0.49558953  0.84256619  0.95972579     0.05860
C703        C  0.48828706  0.87872393  0.98608963    -0.04110
C704        C  0.49542857  0.87514276  0.03009305    -0.08560
C705        C  0.50347521  0.83547046  0.05002580     0.04970
C706        C  0.50447039  0.79780206  0.02399869    -0.03580
Br707      Br  0.50731368  0.74052103  0.04699151    -0.03280
H708        H  0.50773248  0.77375146  0.95875339     0.08880
H709        H  0.49548205  0.90398554  0.04924820     0.06900
Br710      Br  0.47742863  0.93598104  0.96382762    -0.03700
C711        C  0.65432016  0.04629889  0.85738003    -0.10340
C712        C  0.67306271  0.06603627  0.82257824     0.05860
C713        C  0.64858361  0.09754635  0.79907132    -0.04110
C714        C  0.60591520  0.10825017  0.81141885    -0.08560
C715        C  0.58774939  0.08764313  0.84682065     0.04970
C716        C  0.61305184  0.05655425  0.86955132    -0.03580
Br717      Br  0.59220268  0.02255139  0.91487373    -0.03280
H718        H  0.67234387  0.02240470  0.87599106     0.08880
H719        H  0.58732266  0.13289817  0.79400363     0.06900
Br720      Br  0.67267579  0.12845365  0.75257970    -0.03700
C721        C  0.60097190  0.17803387  0.90090923    -0.10340
C722        C  0.58509373  0.14118825  0.92153876     0.05860
C723        C  0.61293843  0.12171468  0.95383828    -0.04110
C724        C  0.65550202  0.13334871  0.95822666    -0.08560
C725        C  0.67186687  0.16775643  0.93638929     0.04970
C726        C  0.64356946  0.19242608  0.90936568    -0.03580
Br727      Br  0.66183981  0.24389674  0.88204624    -0.03280
H728        H  0.58056619  0.19490342  0.87719492     0.08880
H729        H  0.67673633  0.11487482  0.97993167     0.06900
Br730      Br  0.60250976  0.08093219  0.99744913    -0.03700
C731        C  0.39547879  0.05908882  0.86402111    -0.10340
C732        C  0.41936346  0.08793145  0.84083286     0.05860
C733        C  0.39633823  0.11429880  0.81025663    -0.04110
C734        C  0.35066836  0.11038914  0.80355256    -0.08560
C735        C  0.32668005  0.08343640  0.83019465     0.04970
C736        C  0.35030299  0.06100836  0.86323984    -0.03580
Br737      Br  0.32344564  0.03513213  0.91104921    -0.03280
H738        H  0.41246164  0.03773724  0.88623099     0.08880
H739        H  0.33411182  0.12867558  0.77814370     0.06900
Br740      Br  0.42616031  0.15587442  0.77761108    -0.03700
C741        C  0.36642739  0.12965877  0.97150967    -0.10340
C742        C  0.34418518  0.16492882  0.95309965     0.05860
C743        C  0.36337171  0.18776801  0.91978396    -0.04110
C744        C  0.40384500  0.17360004  0.90502297    -0.08560
C745        C  0.42360928  0.13513959  0.92071074     0.04970
C746        C  0.40310936  0.11254366  0.95352872    -0.03580
Br747      Br  0.41292075  0.05366219  0.96896903    -0.03280
H748        H  0.35213814  0.11181029  0.99727223     0.08880
H749        H  0.41873621  0.19117245  0.87950922     0.06900
Br750      Br  0.33486134  0.23589508  0.89170404    -0.03700
C751        C  0.47343593  0.01853564  0.79144068    -0.10340
C752        C  0.50668210  0.04074566  0.81556639     0.05860
C753        C  0.54238282  0.01415269  0.82379824    -0.04110
C754        C  0.53182337  0.97573665  0.84225388    -0.08560
C755        C  0.50322703  0.94922632  0.82014130     0.04970
C756        C  0.47620310  0.97164555  0.78857803    -0.03580
Br757      Br  0.44640032  0.94119476  0.74309623    -0.03280
H758        H  0.44739713  0.03629709  0.77507394     0.08880
H759        H  0.53686632  0.97050531  0.87627586     0.06900
Br760      Br  0.57879347  0.00678590  0.77493247    -0.03700
C761        C  0.67138976  0.13541528  0.19687271    -0.10340
C762        C  0.68902851  0.09345519  0.19786176     0.05860
C763        C  0.66089413  0.06028718  0.20670861    -0.04110
C764        C  0.61594147  0.06507240  0.19736874    -0.08560
C765        C  0.59746187  0.10648972  0.18907475     0.04970
C766        C  0.62582362  0.14166032  0.19704791    -0.03580
Br767      Br  0.60332564  0.19732480  0.21247565    -0.03280
H768        H  0.69248756  0.16287060  0.19698842     0.08880
H769        H  0.59679400  0.03661180  0.19649123     0.06900
Br770      Br  0.68455692  0.01717162  0.24524619    -0.03700
C771        C  0.62019120  0.11484674  0.09580520    -0.10340
C772        C  0.59430672  0.15096847  0.10630766     0.05860
C773        C  0.61025093  0.19218251  0.09620605    -0.04110
C774        C  0.64921514  0.19607696  0.07418755    -0.08560
C775        C  0.67514840  0.15981398  0.06395060     0.04970
C776        C  0.66063808  0.11878033  0.07697976    -0.03580
Br777      Br  0.69356953  0.06573551  0.07133748    -0.03280
H778        H  0.60923027  0.08284712  0.10334003     0.08880
H779        H  0.66013576  0.22805115  0.06657917     0.06900
Br780      Br  0.58443732  0.24473970  0.11658106    -0.03700
C781        C  0.36094717  0.05836950  0.13864284    -0.10340
C782        C  0.34405417  0.05484200  0.17984804     0.05860
C783        C  0.37210161  0.06558275  0.21540828    -0.04110
C784        C  0.41452734  0.08066214  0.20866507    -0.08560
C785        C  0.42956077  0.08810840  0.16688316     0.04970
C786        C  0.40208665  0.07467299  0.13195516    -0.03580
Br787      Br  0.41660868  0.07851492  0.07311090    -0.03280
H788        H  0.34136660  0.04953375  0.11052806     0.08880
H789        H  0.43483479  0.08934470  0.23630698     0.06900
Br790      Br  0.35451231  0.06182200  0.27391625    -0.03700
C791        C  0.35101149  0.17278361  0.13341594    -0.10340
C792        C  0.34145301  0.17965644  0.08940271     0.05860
C793        C  0.37476356  0.19469990  0.06465970    -0.04110
C794        C  0.41727218  0.18508020  0.07736543    -0.08560
C795        C  0.42855882  0.17058580  0.11927116     0.04970
C796        C  0.39447767  0.17367565  0.14891804    -0.03580
Br797      Br  0.40597718  0.18399640  0.20916349    -0.03280
H798        H  0.32505989  0.16907794  0.15565173     0.08880
H799        H  0.43929686  0.18874684  0.05287966     0.06900
Br800      Br  0.36523807  0.23732079  0.02071829    -0.03700
C801        C  0.49675796  0.02464993  0.13865773    -0.10340
C802        C  0.51255746  0.04388581  0.17627765     0.05860
C803        C  0.51931297  0.01680908  0.21245155    -0.04110
C804        C  0.51490346  0.97131829  0.20754946    -0.08560
C805        C  0.49574079  0.95296943  0.16951428     0.04970
C806        C  0.48413245  0.98225980  0.13637531    -0.03580
Br807      Br  0.45446400  0.96988713  0.08385973    -0.03280
H808        H  0.49062864  0.04415413  0.11082807     0.08880
H809        H  0.52519967  0.95040754  0.23391126     0.06900
Br810      Br  0.53462421  0.04020190  0.26788445    -0.03700
C811        C  0.51165513  0.11116869  0.04433170    -0.10340
C812        C  0.51130289  0.15321644  0.06078220     0.05860
C813        C  0.51112884  0.18786387  0.03075661    -0.04110
C814        C  0.50798043  0.17898054  0.98621425    -0.08560
C815        C  0.50524400  0.13641873  0.97086027     0.04970
C816        C  0.50679124  0.10228298  0.00061877    -0.03580
Br817      Br  0.51101685  0.04202326  0.98431873    -0.03280
H818        H  0.51703022  0.08451191  0.06580964     0.08880
H819        H  0.50657231  0.20539236  0.96344740     0.06900
Br820      Br  0.50324699  0.24722265  0.04698910    -0.03700
C821        C  0.92302105  0.86218194  0.59557674    -0.10340
C822        C  0.89597806  0.83139254  0.57642554     0.05860
C823        C  0.88853733  0.79264153  0.59893404    -0.04110
C824        C  0.90361093  0.78900253  0.64212933    -0.08560
C825        C  0.93074266  0.82100889  0.65998674     0.04970
C826        C  0.94770231  0.85030241  0.63171419    -0.03580
Br827      Br  0.99777730  0.82438105  0.61074664    -0.03280
H828        H  0.93137394  0.89071798  0.57788698     0.08880
H829        H  0.89346933  0.76234335  0.66155838     0.06900
Br830      Br  0.85078714  0.74946682  0.57539145    -0.03700
C831        C  0.82150972  0.86370147  0.61565156    -0.10340
C832        C  0.81646433  0.88706034  0.57695006     0.05860
C833        C  0.79089881  0.92497262  0.58204752    -0.04110
C834        C  0.79128476  0.94653590  0.62224588    -0.08560
C835        C  0.81432690  0.92914104  0.65819574     0.04970
C836        C  0.82397686  0.88471038  0.65576919    -0.03580
Br837      Br  0.83308469  0.85007414  0.70629036    -0.03280
H838        H  0.82180150  0.82920379  0.61504780     0.08880
H839        H  0.76980582  0.97393323  0.62628470     0.06900
Br840      Br  0.73670961  0.92960496  0.55129936    -0.03700
C841        C  0.86748574  0.91603639  0.39619318    -0.10340
C842        C  0.83230391  0.89601999  0.41373626     0.05860
C843        C  0.79380281  0.89176468  0.38820581    -0.04110
C844        C  0.79091364  0.90992471  0.34655088    -0.08560
C845        C  0.82803196  0.92637662  0.32781704     0.04970
C846        C  0.86706964  0.92546147  0.35271152    -0.03580
Br847      Br  0.92229420  0.92048880  0.32834422    -0.03280
H848        H  0.89800228  0.91677386  0.41442536     0.08880
H849        H  0.76113233  0.90725868  0.32745943     0.06900
Br850      Br  0.74786536  0.85569351  0.40609990    -0.03700
C851        C  0.95325299  0.80777061  0.36768113    -0.10340
C852        C  0.92782719  0.81483126  0.33036372     0.05860
C853        C  0.88245887  0.81466448  0.33452118    -0.04110
C854        C  0.86479879  0.81665450  0.37588437    -0.08560
C855        C  0.89173697  0.81965535  0.41344472     0.04970
C856        C  0.93456547  0.80422706  0.40790884    -0.03580
Br857      Br  0.94977362  0.74833683  0.42938547    -0.03280
H858        H  0.98535892  0.79474573  0.36415855     0.08880
H859        H  0.83012760  0.81687559  0.37844891     0.06900
Br860      Br  0.84372824  0.80941084  0.28545432    -0.03700
C861        C  0.93471548  0.12049708  0.59820936    -0.10340
C862        C  0.91880198  0.15267401  0.57109070     0.05860
C863        C  0.91706326  0.19575714  0.58666768    -0.04110
C864        C  0.93181225  0.20484893  0.62928024    -0.08560
C865        C  0.94297220  0.17079083  0.65765603     0.04970
C866        C  0.94011832  0.12833288  0.64152867    -0.03580
Br867      Br  0.93053222  0.07883770  0.67530970    -0.03280
H868        H  0.93456745  0.08744963  0.58740174     0.08880
H869        H  0.93135958  0.23780566  0.64098899     0.06900
Br870      Br  0.88842747  0.24114191  0.55429017    -0.03700
C871        C  0.82922134  0.14083262  0.60614525    -0.10340
C872        C  0.83822943  0.10299307  0.58130214     0.05860
C873        C  0.82616073  0.06373415  0.60087366    -0.04110
C874        C  0.80116490  0.06441186  0.63752102    -0.08560
C875        C  0.80513513  0.09828191  0.66688607     0.04970
C876        C  0.81722914  0.13829127  0.65000752    -0.03580
Br877      Br  0.82038953  0.18880705  0.68550817    -0.03280
H878        H  0.83507754  0.17222013  0.59293954     0.08880
H879        H  0.79096687  0.03415837  0.65018801     0.06900
Br880      Br  0.86393163  0.01498251  0.60747611    -0.03700
C881        C  0.93136683  0.13068776  0.38865936    -0.10340
C882        C  0.89657626  0.14961286  0.40886309     0.05860
C883        C  0.87092486  0.17943431  0.38405271    -0.04110
C884        C  0.88098782  0.18832724  0.34038700    -0.08560
C885        C  0.91711127  0.16825644  0.32089827     0.04970
C886        C  0.94235120  0.13922439  0.34692019    -0.03580
Br887      Br  0.99286314  0.10686633  0.33062543    -0.03280
H888        H  0.94950569  0.10630839  0.40433173     0.08880
H889        H  0.86086727  0.21107710  0.32202388     0.06900
Br890      Br  0.82299117  0.20932685  0.40884817    -0.03700
C891        C  0.87561381  0.04878559  0.40242375    -0.10340
C892        C  0.84328685  0.07513177  0.41890166     0.05860
C893        C  0.80513818  0.08287650  0.39391055    -0.04110
C894        C  0.80219735  0.06715299  0.35130501    -0.08560
C895        C  0.83823304  0.04659909  0.33263165     0.04970
C896        C  0.87563398  0.03845079  0.35912797    -0.03580
Br897      Br  0.93157507  0.02200654  0.33926689    -0.03280
H898        H  0.90399345  0.04136801  0.42212461     0.08880
H899        H  0.77292238  0.07353523  0.33207828     0.06900
Br900      Br  0.75715107  0.11469547  0.41650065    -0.03700
C901        C  0.86787512  0.95940362  0.51062383    -0.10340
C902        C  0.82892989  0.94231417  0.49504841     0.05860
C903        C  0.79635711  0.97227300  0.47974556    -0.04110
C904        C  0.80196002  0.01703423  0.48563182    -0.08560
C905        C  0.84102887  0.03375910  0.50223110     0.04970
C906        C  0.87501946  0.00359672  0.51215504    -0.03580
Br907      Br  0.93141350  0.01784655  0.53401712    -0.03280
H908        H  0.89368142  0.93776442  0.52176949     0.08880
H909        H  0.77625388  0.03915494  0.47515862     0.06900
Br910      Br  0.74383060  0.95696157  0.44963791    -0.03700
C911        C  0.13903790  0.09638898  0.61954492    -0.10340
C912        C  0.16804975  0.09851960  0.58652155     0.05860
C913        C  0.21072427  0.08221694  0.59755361    -0.04110
C914        C  0.21923584  0.06183145  0.63867527    -0.08560
C915        C  0.18728875  0.06394631  0.67046788     0.04970
C916        C  0.15242168  0.09093066  0.66201511    -0.03580
Br917      Br  0.15488573  0.14060722  0.69872549    -0.03280
H918        H  0.10886423  0.08241849  0.61061697     0.08880
H919        H  0.25002339  0.04571017  0.64570261     0.06900
Br920      Br  0.25774315  0.08810979  0.55962892    -0.03700
C921        C  0.05750029  0.13877712  0.58841698    -0.10340
C922        C  0.09260494  0.16356957  0.57589484     0.05860
C923        C  0.10639174  0.19700133  0.60325490    -0.04110
C924        C  0.08817067  0.20167586  0.64385369    -0.08560
C925        C  0.06188969  0.16902169  0.66023093     0.04970
C926        C  0.04785176  0.13628258  0.63196551    -0.03580
Br927      Br  0.03264191  0.08012333  0.65189110    -0.03280
H928        H  0.04491696  0.11435450  0.56712326     0.08880
H929        H  0.09939201  0.22754366  0.66468037     0.06900
Br930      Br  0.15204071  0.23425182  0.58778258    -0.03700
C931        C  0.07200003  0.19073790  0.40435239    -0.10340
C932        C  0.11181092  0.16873643  0.41369986     0.05860
C933        C  0.13876617  0.16489416  0.37779744    -0.04110
C934        C  0.12053501  0.16300900  0.33570884    -0.08560
C935        C  0.07710388  0.17521625  0.32782787     0.04970
C936        C  0.05502919  0.19460742  0.36202749    -0.03580
Br937      Br  0.00372809  0.22953300  0.35252869    -0.03280
H938        H  0.05438276  0.20727275  0.42866802     0.08880
H939        H  0.14126852  0.15675691  0.30878718     0.06900
Br940      Br  0.19723243  0.18360938  0.38276233    -0.03700
C941        C  0.12633151  0.06629162  0.40180453    -0.10340
C942        C  0.16119656  0.08583006  0.42357265     0.05860
C943        C  0.20265369  0.08298243  0.40585995    -0.04110
C944        C  0.20688914  0.06674792  0.36403013    -0.08560
C945        C  0.17056653  0.05255895  0.33983596     0.04970
C946        C  0.13050094  0.04978819  0.36035390    -0.03580
Br947      Br  0.07952227  0.02502332  0.33428128    -0.03280
H948        H  0.09496991  0.06590176  0.41615735     0.08880
H949        H  0.23831584  0.06757188  0.34961478     0.06900
Br950      Br  0.25357008  0.10532591  0.43484499    -0.03700
C951        C  0.97904097  0.19024874  0.49882957    -0.10340
C952        C  0.96128615  0.15004862  0.48698361     0.05860
C953        C  0.99141338  0.11629248  0.47633147    -0.04110
C954        C  0.03536780  0.12351340  0.47713311    -0.08560
C955        C  0.05284966  0.16186635  0.49157717     0.04970
C956        C  0.02427647  0.19599404  0.50259241    -0.03580
Br957      Br  0.04547902  0.25131422  0.51950604    -0.03280
H958        H  0.95787759  0.21723550  0.50571470     0.08880
H959        H  0.05708222  0.09750695  0.46825512     0.06900
Br960      Br  0.98117181  0.05770845  0.46008099    -0.03700
C961        C  0.09247226  0.80947927  0.64814914    -0.10340
C962        C  0.07303287  0.84391488  0.67083598     0.05860
C963        C  0.06882025  0.88508276  0.65059240    -0.04110
C964        C  0.08104554  0.88969042  0.60807771    -0.08560
C965        C  0.09753568  0.85460576  0.58498287     0.04970
C966        C  0.10366630  0.81432444  0.60518005    -0.03580
Br967      Br  0.12776007  0.76553604  0.57540077    -0.03280
H968        H  0.09660597  0.77799607  0.66286421     0.08880
H969        H  0.07753338  0.92094155  0.59270477     0.06900
Br970      Br  0.04221131  0.93577982  0.67530095    -0.03700
C971        C  0.18678281  0.86686367  0.61405100    -0.10340
C972        C  0.18006919  0.89696875  0.58054270     0.05860
C973        C  0.18361565  0.94056394  0.59238905    -0.04110
C974        C  0.16932135  0.95327622  0.63257296    -0.08560
C975        C  0.17062271  0.92343277  0.66607300     0.04970
C976        C  0.18287460  0.88020733  0.65716363    -0.03580
Br977      Br  0.19055519  0.83831427  0.70219905    -0.03280
H978        H  0.19028083  0.83287094  0.60667483     0.08880
H979        H  0.16686507  0.98722615  0.63993389     0.06900
Br980      Br  0.23826712  0.96592765  0.58258272    -0.03700
C981        C  0.05352048  0.87105739  0.40532286    -0.10340
C982        C  0.08401106  0.84361053  0.42546337     0.05860
C983        C  0.09376634  0.80366817  0.40609017    -0.04110
C984        C  0.07655826  0.79438431  0.36469534    -0.08560
C985        C  0.05299633  0.82639252  0.34110158     0.04970
C986        C  0.04212939  0.86559102  0.36228435    -0.03580
Br987      Br  0.02612546  0.91868941  0.33369464    -0.03280
H988        H  0.04485374  0.90118682  0.42025132     0.08880
H989        H  0.08544776  0.76413515  0.34943980     0.06900
Br990      Br  0.13193242  0.76244527  0.43417187    -0.03700
C991        C  0.21403450  0.91596103  0.36385716    -0.10340
C992        C  0.18001062  0.93543194  0.33829133     0.05860
C993        C  0.13878540  0.92505573  0.34913099    -0.04110
C994        C  0.13125596  0.92256902  0.39263230    -0.08560
C995        C  0.16096711  0.89947472  0.41852489     0.04970
C996        C  0.20329644  0.89373917  0.40227494    -0.03580
Br997      Br  0.24357022  0.85245389  0.42743660    -0.03280
H998        H  0.24661341  0.91399473  0.35210166     0.08880
H999        H  0.10236249  0.93712576  0.40530698     0.06900
Br1000     Br  0.13261522  0.87221218  0.31692223    -0.03700
C1001       C  0.20181069  0.02117988  0.49073182    -0.10340
C1002       C  0.16480855  0.04323776  0.50559592     0.05860
C1003       C  0.12959372  0.01799665  0.51718753    -0.04110
C1004       C  0.13177280  0.97346813  0.51394803    -0.08560
C1005       C  0.16797841  0.95129880  0.49877475     0.04970
C1006       C  0.20369092  0.97587464  0.48675048    -0.03580
Br1007     Br  0.25839819  0.95091130  0.47225591    -0.03280
H1008       H  0.23004398  0.03886767  0.48318119     0.08880
H1009       H  0.10524380  0.95535735  0.52554348     0.06900
Br1010     Br  0.07598073  0.04004302  0.53686292    -0.03700
C1011       C  0.02195278  0.80732097  0.51280561    -0.10340
C1012       C  0.03930468  0.84840114  0.50617946     0.05860
C1013       C  0.00916757  0.88260625  0.49743537    -0.04110
C1014       C  0.96474604  0.87499435  0.49153371    -0.08560
C1015       C  0.94686229  0.83462437  0.49917356     0.04970
C1016       C  0.97640105  0.80094204  0.51255674    -0.03580
Br1017     Br  0.95759871  0.74651502  0.53389377    -0.03280
H1018       H  0.04375146  0.78050334  0.52049612     0.08880
H1019       H  0.94349283  0.90179278  0.48253124     0.06900
Br1020     Br  0.02523776  0.94160993  0.49439527    -0.03700
loop_ 
_geom_bond_atom_site_label_1 
_geom_bond_atom_site_label_2 
_geom_bond_distance 
_geom_bond_site_symmetry_2 
_ccdc_geom_bond_type 
C1            C2   1.412       .  A
C1            C6   1.442       .  A
C1          C982   1.487       .  S
C2            C3   1.421       .  A
C2         C1012   1.532       .  S
C3            C4   1.438       .  A
C3          C965   1.469       .  S
C4            C5   1.424       .  A
C4          C972   1.518       .  S
C5            C6   1.419       .  A
C5         C1005   1.503       .  S
C6          C995   1.499       .  S
C7            C8   1.423       .  A
C7           C12   1.454       .  A
C7          C912   1.545       .  S
C8            C9   1.432       .  A
C8         C1002   1.511       .  S
C9           C10   1.445       .  A
C9          C942   1.487       .  S
C10          C11   1.433       .  A
C10         C932   1.554       .  S
C11          C12   1.428       .  A
C11         C955   1.499       .  S
C12         C922   1.500       .  S
C13          C14   1.430       .  A
C13          C18   1.446       .  A
C13         C862   1.484       .  S
C14          C15   1.425       .  A
C14         C952   1.521       .  S
C15          C16   1.432       .  A
C15         C882   1.527       .  S
C16          C17   1.434       .  A
C16         C892   1.485       .  S
C17          C18   1.434       .  A
C17         C905   1.511       .  S
C18         C872   1.556       .  S
C19          C20   1.435       .  A
C19          C24   1.451       .  A
C19         C822   1.476       .  S
C20          C21   1.432       .  A
C20        C1015   1.534       .  S
C21          C22   1.453       .  A
C21         C855   1.551       .  S
C22          C23   1.435       .  A
C22         C842   1.489       .  S
C23          C24   1.438       .  A
C23         C902   1.519       .  S
C24         C832   1.559       .  S
C25          C26   1.434       .  A
C25          C30   1.444       .  A
C25         C772   1.528       .  S
C26          C27   1.448       .  A
C26         C812   1.509       .  S
C27          C28   1.442       .  A
C27         C795   1.537       .  S
C28          C29   1.450       .  A
C28         C785   1.548       .  S
C29          C30   1.454       .  A
C29         C802   1.512       .  S
C30         C765   1.544       .  S
C31          C32   1.402       .  A
C31          C36   1.428       .  A
C31         C722   1.523       .  S
C32          C33   1.418       .  A
C32         C815   1.485       .  S
C33          C34   1.437       .  A
C33         C745   1.494       .  S
C34          C35   1.441       .  A
C34         C732   1.513       .  S
C35          C36   1.463       .  A
C35         C752   1.542       .  S
C36         C715   1.498       .  S
C37          C38   1.393       .  A
C37          C42   1.390       .  A
C37         C662   1.388       .  S
C38          C39   1.420       .  A
C38         C805   1.529       .  S
C39          C40   1.457       .  A
C39         C685   1.519       .  S
C40          C41   1.446       .  A
C40         C692   1.511       .  S
C41          C42   1.438       .  A
C41         C705   1.491       .  S
C42         C672   1.566       .  S
C43          C44   1.451       .  A
C43          C48   1.433       .  A
C43         C622   1.517       .  S
C44          C45   1.438       .  A
C44         C755   1.529       .  S
C45          C46   1.434       .  A
C45         C642   1.495       .  S
C46          C47   1.411       .  A
C46         C652   1.511       .  S
C47          C48   1.410       .  A
C47         C702   1.480       .  S
C48         C635   1.513       .  S
C49          C50   1.422       .  A
C49          C54   1.435       .  A
C49         C562   1.497       .  S
C50          C51   1.440       .  A
C50         C612   1.519       .  S
C51          C52   1.448       .  A
C51         C585   1.522       .  S
C52          C53   1.443       .  A
C52         C592   1.543       .  S
C53          C54   1.451       .  A
C53         C602   1.498       .  S
C54         C572   1.561       .  S
C55          C56   1.407       .  A
C55          C60   1.425       .  A
C55         C542   1.529       .  S
C56          C57   1.416       .  A
C56         C605   1.486       .  S
C57          C58   1.452       .  A
C57         C522   1.489       .  S
C58          C59   1.456       .  A
C58         C515   1.556       .  S
C59          C60   1.454       .  A
C59         C552   1.557       .  S
C60         C535   1.478       .  S
C61          C62   1.452       .  A
C61          C66   1.456       .  A
C61         C485   1.565       .  S
C62          C63   1.451       .  A
C62         C555   1.546       .  S
C63          C64   1.421       .  A
C63         C462   1.473       .  S
C64          C65   1.397       .  A
C64         C475   1.519       .  S
C65          C66   1.426       .  A
C65         C505   1.494       .  S
C66         C495   1.487       .  S
C67          C68   1.444       .  A
C67          C72   1.422       .  A
C67         C435   1.490       .  S
C68          C69   1.431       .  A
C68         C425   1.529       .  S
C69          C70   1.426       .  A
C69         C615   1.514       .  S
C70          C71   1.430       .  A
C70         C442   1.471       .  S
C71          C72   1.408       .  A
C71         C452   1.512       .  S
C72         C502   1.500       .  S
O73          C81   1.268       .  A
O73         Co93   1.999       .  S
O74          C82   1.281       .  A
O74         Co94   1.917       .  S
O75          C83   1.271       .  A
O75         Co95   1.991       .  S
O76          C84   1.281       .  A
O76         Co96   2.027       .  S
O77          C83   1.280       .  A
O77         Co94   2.026   1_565  S
O78          C84   1.264       .  A
O78         Co93   1.989   1_545  S
O79          C82   1.290       .  A
O79         Co96   2.114       .  S
O80          C81   1.276       .  A
O80         Co95   2.000       .  S
C81         C342   1.477       .  S
C82         C258   1.490       .  S
C83         C170   1.494       .  S
C84         C110   1.482       .  S
O85          C98   1.288       .  A
O85         Co93   2.030   1_545  S
O86          C99   1.282       .  A
O86         Co94   2.038   1_565  S
O87         C100   1.253       .  A
O87         Co95   1.940       .  S
O88         C101   1.277       .  A
O88         Co96   1.945       .  S
O89         C101   1.295       .  A
O89         Co94   2.120       .  S
O90         C100   1.272       .  A
O90         Co93   2.033       .  S
O91          C98   1.267       .  A
O91         Co96   1.993       .  S
O92          C99   1.253       .  A
O92         Co95   1.935       .  S
Co93         O97   2.028       .  S
Co94         O97   1.981   1_545  S
Co95         O97   2.009       .  S
Co96         O97   2.019   1_545  S
C98         C915   1.495       .  S
C99         C645   1.461       .  S
C100        C975   1.462       .  S
C101        C735   1.516       .  S
O102        C110   1.274       .  A
O102       Co122   1.992       .  S
O103        C111   1.262       .  A
O103       Co123   2.005   1_655  S
O104        C112   1.280       .  A
O104       Co124   2.072       .  S
O105        C113   1.317       .  A
O105       Co125   2.152       .  S
O106        C112   1.242       .  A
O106       Co123   1.931       .  S
O107        C113   1.285       .  A
O107       Co122   1.885   1_655  S
O108        C111   1.265       .  A
O108       Co125   2.005       .  S
O109        C110   1.264       .  A
O109       Co124   1.995       .  S
C111        C314   1.494       .  S
C112        C256   1.479       .  S
C113        C371   1.470       .  S
O114        C127   1.247       .  A
O114       Co122   2.030   1_655  S
O115        C128   1.288       .  A
O115       Co123   2.087       .  S
O116        C129   1.257       .  A
O116       Co124   1.944       .  S
O117        C130   1.262       .  A
O117       Co125   1.975       .  S
O118        C130   1.260       .  A
O118       Co123   1.993   1_655  S
O119        C129   1.286       .  A
O119       Co122   2.054       .  S
O120        C127   1.239       .  A
O120       Co125   1.978       .  S
O121        C128   1.241       .  A
O121       Co124   1.919       .  S
Co122       O126   1.991       .  S
Co123       O126   2.087       .  S
Co124       O126   2.088       .  S
Co125       O126   2.114   1_655  S
C127        C865   1.486       .  S
C128        C582   1.478       .  S
C129        C925   1.486       .  S
C130        C445   1.470       .  S
O131        C139   1.276       .  A
O131       Co151   2.021   1_455  S
O132        C140   1.267       .  A
O132       Co152   1.994   1_655  S
O133        C141   1.281       .  A
O133       Co153   2.060       .  S
O134        C142   1.269       .  A
O134       Co154   2.019       .  S
O135        C141   1.254       .  A
O135       Co152   1.965       .  S
O136        C142   1.264       .  A
O136       Co151   1.961       .  S
O137        C140   1.267       .  A
O137       Co154   2.003       .  S
O138        C139   1.272       .  A
O138       Co153   2.022       .  S
C139        C226   1.506       .  S
C140        C402   1.471       .  S
C141        C171   1.492       .  S
C142        C286   1.458       .  S
O143        C156   1.280       .  A
O143       Co151   2.073       .  S
O144        C157   1.283       .  A
O144       Co152   2.081       .  S
O145        C158   1.258       .  A
O145       Co153   1.976       .  S
O146        C159   1.258       .  A
O146       Co154   1.952       .  S
O147        C159   1.266       .  A
O147       Co152   2.006   1_655  S
O148        C158   1.263       .  A
O148       Co151   1.990   1_455  S
O149        C156   1.257       .  A
O149       Co154   1.957       .  S
O150        C157   1.250       .  A
O150       Co153   1.954       .  S
Co151       O155   2.102   1_655  S
Co152       O155   2.114       .  S
Co153       O155   2.097       .  S
Co154       O155   2.108   1_655  S
C156        C852   1.491       .  S
C157        C512   1.489       .  S
C158        C985   1.482       .  S
C159        C465   1.460       .  S
O160        C168   1.276       .  A
O160       Co180   2.032       .  S
O161        C169   1.273       .  A
O161       Co181   2.016       .  S
O162        C170   1.268       .  A
O162       Co182   1.995   1_556  S
O163        C171   1.278       .  A
O163       Co183   2.014   1_554  S
O164        C170   1.276       .  A
O164       Co181   2.021       .  S
O165        C171   1.268       .  A
O165       Co180   2.009       .  S
O166        C169   1.264       .  A
O166       Co183   1.994       .  S
O167        C168   1.265       .  A
O167       Co182   1.983       .  S
C168        C229   1.487       .  S
C169        C345   1.486       .  S
O172        C185   1.258       .  A
O172       Co180   1.967       .  S
O173        C186   1.261       .  A
O173       Co181   1.976       .  S
O174        C187   1.272       .  A
O174       Co182   2.032       .  S
O175        C188   1.285       .  A
O175       Co183   2.091       .  S
O176        C188   1.260       .  A
O176       Co181   1.972       .  S
O177        C187   1.257       .  A
O177       Co180   1.957       .  S
O178        C185   1.266       .  A
O178       Co183   1.998   1_554  S
O179        C186   1.267       .  A
O179       Co182   2.018   1_556  S
Co180       O184   2.102       .  S
Co181       O184   2.097   1_556  S
Co182       O184   2.127       .  S
Co183       O184   2.121   1_556  S
C185        C525   1.478       .  S
C186        C655   1.492       .  S
C187        C695   1.487       .  S
C188        C575   1.508       .  S
O189        C197   1.273       .  A
O189       Co209   2.010       .  S
O190        C198   1.280       .  A
O190       Co210   2.041       .  S
O191        C199   1.284       .  A
O191       Co211   1.922   1_655  S
O192        C200   1.268       .  A
O192       Co212   1.999       .  S
O193        C199   1.278       .  A
O193       Co210   2.056       .  S
O194        C200   1.280       .  A
O194       Co209   2.002       .  S
O195        C198   1.253       .  A
O195       Co212   1.966   1_655  S
O196        C197   1.279       .  A
O196       Co211   2.009       .  S
C197        C228   1.492       .  S
C198        C316   1.474       .  S
C199        C284   1.466       .  S
C200        C257   1.480       .  S
O201        C214   1.259       .  A
O201       Co209   1.960       .  S
O202        C215   1.275       .  A
O202       Co210   1.942       .  S
O203        C216   1.282       .  A
O203       Co211   2.046       .  S
O204        C217   1.287       .  A
O204       Co212   2.071   1_655  S
O205        C217   1.264       .  A
O205       Co210   1.964       .  S
O206        C216   1.262       .  A
O206       Co209   1.971       .  S
O207        C214   1.266       .  A
O207       Co212   1.993       .  S
O208        C215   1.291       .  A
O208       Co211   2.104   1_655  S
Co209       O213   2.004       .  S
Co210       O213   2.009   1_655  S
Co211       O213   1.987       .  S
Co212       O213   2.027       .  S
C214        C532   1.466       .  S
C215        C885   1.512       .  S
C216        C935   1.484       .  S
C217        C482   1.496       .  S
O218        C226   1.276       .  A
O218       Co238   2.042       .  S
O219        C227   1.260       .  A
O219       Co239   1.980       .  S
O220        C228   1.268       .  A
O220       Co240   1.983   1_545  S
O221        C229   1.271       .  A
O221       Co241   1.996       .  S
O222        C228   1.285       .  A
O222       Co239   2.051       .  S
O223        C229   1.273       .  A
O223       Co238   2.021       .  S
O224        C227   1.268       .  A
O224       Co241   1.984   1_545  S
O225        C226   1.268       .  A
O225       Co240   2.004       .  S
C227        C255   1.458       .  S
O230        C243   1.248       .  A
O230       Co238   1.939       .  S
O231        C244   1.260       .  A
O231       Co239   1.965       .  S
O232        C245   1.283       .  A
O232       Co240   2.023       .  S
O233        C246   1.282       .  A
O233       Co241   2.051   1_545  S
O234        C246   1.270       .  A
O234       Co239   1.995       .  S
O235        C245   1.248       .  A
O235       Co238   1.951       .  S
O236        C243   1.267       .  A
O236       Co241   2.028       .  S
O237        C244   1.265       .  A
O237       Co240   2.018   1_545  S
Co238       O242   2.094       .  S
Co239       O242   2.107   1_545  S
Co240       O242   2.111       .  S
Co241       O242   2.108       .  S
C243        C682   1.453       .  S
C244        C945   1.481       .  S
C245        C992   1.480       .  S
C246        C782   1.520       .  S
O247        C255   1.252       .  A
O247       Co267   1.953       .  S
O248        C256   1.278       .  A
O248       Co268   1.909       .  S
O249        C257   1.266       .  A
O249       Co269   1.965       .  S
O250        C258   1.293       .  A
O250       Co270   2.066       .  S
O251        C257   1.281       .  A
O251       Co268   2.016   1_554  S
O252        C258   1.266       .  A
O252       Co267   1.967   1_556  S
O253        C256   1.284       .  A
O253       Co270   2.089       .  S
O254        C255   1.277       .  A
O254       Co269   2.027       .  S
O259        C272   1.267       .  A
O259       Co267   1.972   1_556  S
O260        C273   1.277       .  A
O260       Co268   2.037   1_554  S
O261        C274   1.254       .  A
O261       Co269   1.941       .  S
O262        C275   1.285       .  A
O262       Co270   1.949       .  S
O263        C275   1.292       .  A
O263       Co268   2.106       .  S
O264        C274   1.284       .  A
O264       Co267   2.067       .  S
O265        C272   1.268       .  A
O265       Co270   1.978       .  S
O266        C273   1.263       .  A
O266       Co269   1.956       .  S
Co267       O271   2.020       .  S
Co268       O271   1.978   1_556  S
Co269       O271   2.022       .  S
Co270       O271   2.023   1_556  S
C272        C742   1.472       .  S
C273        C545   1.475       .  S
C274        C792   1.475       .  S
C275        C595   1.517       .  S
O276        C284   1.294       .  A
O276       Co296   2.047       .  S
O277        C285   1.238       .  A
O277       Co297   1.970       .  S
O278        C286   1.268       .  A
O278       Co298   1.960       .  S
O279        C287   1.239       .  A
O279       Co299   1.978       .  S
O280        C286   1.287       .  A
O280       Co297   2.041       .  S
O281        C287   1.249       .  A
O281       Co296   2.017       .  S
O282        C285   1.244       .  A
O282       Co299   1.983   1_565  S
O283        C284   1.268       .  A
O283       Co298   1.951   1_545  S
C285        C400   1.456       .  S
C287        C313   1.486       .  S
O288        C301   1.287       .  A
O288       Co296   1.913       .  S
O289        C302   1.263       .  A
O289       Co297   1.980       .  S
O290        C303   1.264       .  A
O290       Co298   1.999   1_545  S
O291        C304   1.305       .  A
O291       Co299   2.097   1_565  S
O292        C304   1.280       .  A
O292       Co297   1.896       .  S
O293        C303   1.265       .  A
O293       Co296   1.980       .  S
O294        C301   1.315       .  A
O294       Co299   2.126       .  S
O295        C302   1.265       .  A
O295       Co298   2.006       .  S
Co296       O300   2.008   1_545  S
Co297       O300   2.010       .  S
Co298       O300   2.035       .  S
Co299       O300   2.105   1_545  S
C301        C762   1.499       .  S
C302        C845   1.491       .  S
C303        C895   1.484       .  S
C304        C665   1.477       .  S
O305        C313   1.275       .  A
O305       Co325   2.031       .  S
O306        C314   1.275       .  A
O306       Co326   2.024       .  S
O307        C315   1.270       .  A
O307       Co327   1.995       .  S
O308        C316   1.278       .  A
O308       Co328   1.999   1_554  S
O309        C315   1.272       .  A
O309       Co326   2.019       .  S
O310        C316   1.264       .  A
O310       Co325   1.998       .  S
O311        C314   1.274       .  A
O311       Co328   2.001       .  S
O312        C313   1.272       .  A
O312       Co327   1.990   1_554  S
C315        C373   1.484       .  S
O317        C330   1.271       .  A
O317       Co325   1.983       .  S
O318        C331   1.260       .  A
O318       Co326   1.970       .  S
O319        C332   1.271       .  A
O319       Co327   2.035   1_554  S
O320        C333   1.272       .  A
O320       Co328   2.032       .  S
O321        C333   1.262       .  A
O321       Co326   1.979       .  S
O322        C332   1.268       .  A
O322       Co325   1.983       .  S
O323        C330   1.264       .  A
O323       Co328   1.990   1_554  S
O324        C331   1.274       .  A
O324       Co327   2.014       .  S
Co325       O329   2.121   1_554  S
Co326       O329   2.119       .  S
Co327       O329   2.104       .  S
Co328       O329   2.101       .  S
C330        C492   1.481       .  S
C331        C725   1.475       .  S
C332        C775   1.510       .  S
C333        C455   1.499       .  S
O334        C342   1.269       .  A
O334       Co354   1.980       .  S
O335        C343   1.300       .  A
O335       Co355   2.090       .  S
O336        C344   1.287       .  A
O336       Co356   1.910       .  S
O337        C345   1.275       .  A
O337       Co357   2.012   1_455  S
O338        C344   1.293       .  A
O338       Co355   2.064       .  S
O339        C345   1.268       .  A
O339       Co354   1.992       .  S
O340        C343   1.286       .  A
O340       Co357   1.889       .  S
O341        C342   1.278       .  A
O341       Co356   2.002   1_455  S
C343        C401   1.456       .  S
C344        C374   1.463       .  S
O346        C359   1.285       .  A
O346       Co354   1.982       .  S
O347        C360   1.231       .  A
O347       Co355   1.935       .  S
O348        C361   1.279       .  A
O348       Co356   1.995   1_455  S
O349        C362   1.256       .  A
O349       Co357   2.074       .  S
O350        C362   1.226       .  A
O350       Co355   1.937       .  S
O351        C361   1.287       .  A
O351       Co354   1.988       .  S
O352        C359   1.284       .  A
O352       Co357   2.005   1_455  S
O353        C360   1.259       .  A
O353       Co356   2.055       .  S
Co354       O358   2.018       .  S
Co355       O358   2.078   1_655  S
Co356       O358   1.982   1_655  S
Co357       O358   1.977   1_655  S
C359        C565   1.483       .  S
C360        C825   1.480       .  S
C361        C962   1.481       .  S
C362        C422   1.474       .  S
O363        C371   1.270       .  A
O363       Co383   1.879       .  S
O364        C372   1.277       .  A
O364       Co384   2.009       .  S
O365        C373   1.276       .  A
O365       Co385   2.009       .  S
O366        C374   1.277       .  A
O366       Co386   2.024       .  S
O367        C373   1.274       .  A
O367       Co384   2.003   1_545  S
O368        C374   1.258       .  A
O368       Co383   1.950   1_565  S
O369        C372   1.274       .  A
O369       Co386   2.025       .  S
O370        C371   1.290       .  A
O370       Co385   2.100       .  S
C372        C403   1.500       .  S
O375        C388   1.279       .  A
O375       Co383   2.059   1_565  S
O376        C389   1.276       .  A
O376       Co384   2.002   1_545  S
O377        C390   1.274       .  A
O377       Co385   1.946       .  S
O378        C391   1.262       .  A
O378       Co386   1.967       .  S
O379        C391   1.274       .  A
O379       Co384   2.018       .  S
O380        C390   1.297       .  A
O380       Co383   2.097       .  S
O381        C388   1.256       .  A
O381       Co386   1.977       .  S
O382        C389   1.272       .  A
O382       Co385   1.986       .  S
Co383       O387   1.993   1_545  S
Co384       O387   2.028       .  S
Co385       O387   2.024   1_545  S
Co386       O387   2.039       .  S
C388        C835   1.494       .  S
C389        C712   1.480       .  S
C390        C875   1.509       .  S
C391        C625   1.490       .  S
O392        C400   1.257       .  A
O392       Co412   1.955   1_554  S
O393        C401   1.260       .  A
O393       Co413   1.950   1_556  S
O394        C402   1.270       .  A
O394       Co414   2.020       .  S
O395        C403   1.276       .  A
O395       Co415   2.047       .  S
O396        C402   1.257       .  A
O396       Co413   1.964       .  S
O397        C403   1.262       .  A
O397       Co412   1.991       .  S
O398        C401   1.272       .  A
O398       Co415   2.015       .  S
O399        C400   1.274       .  A
O399       Co414   2.011       .  S
O404        C417   1.272       .  A
O404       Co412   2.027       .  S
O405        C418   1.273       .  A
O405       Co413   2.045       .  S
O406        C419   1.259       .  A
O406       Co414   1.964       .  S
O407        C420   1.254       .  A
O407       Co415   1.962       .  S
O408        C420   1.265       .  A
O408       Co413   1.987   1_556  S
O409        C419   1.275       .  A
O409       Co412   2.047   1_554  S
O410        C417   1.254       .  A
O410       Co415   1.955       .  S
O411        C418   1.266       .  A
O411       Co414   1.980       .  S
Co412       O416   2.118       .  S
Co413       O416   2.108   1_554  S
Co414       O416   2.106   1_554  S
Co415       O416   2.110       .  S
C417        C632   1.472       .  S
C418        C472   1.498       .  S
C419        C675   1.493       .  S
C420        C432   1.468       .  S
C421        C422   1.402       .  A
C421        C426   1.406       .  A
C421        H428   1.083       .  S
C422        C423   1.403       .  A
C423        C424   1.398       .  A
C423       Br430   1.911       .  S
C424        C425   1.410       .  A
C424        H429   1.067       .  S
C425        C426   1.415       .  A
C426       Br427   1.917       .  S
C431        C432   1.395       .  A
C431        C436   1.374       .  A
C431        H438   1.084       .  S
C432        C433   1.409       .  A
C433        C434   1.401       .  A
C433       Br440   1.919       .  S
C434        C435   1.409       .  A
C434        H439   1.080       .  S
C435        C436   1.408       .  A
C436       Br437   1.895       .  S
C441        C442   1.390       .  A
C441        C446   1.380       .  A
C441        H448   1.082       .  S
C442        C443   1.404       .  A
C443        C444   1.402       .  A
C443       Br450   1.914       .  S
C444        C445   1.408       .  A
C444        H449   1.083       .  S
C445        C446   1.413       .  A
C446       Br447   1.907   1_655  S
C451        C452   1.396       .  A
C451        C456   1.389       .  A
C451        H458   1.072       .  S
C452        C453   1.410       .  A
C453        C454   1.415       .  A
C453       Br460   1.914       .  S
C454        C455   1.413       .  A
C454        H459   1.083       .  S
C455        C456   1.410       .  A
C456       Br457   1.906       .  S
C461        C462   1.399       .  A
C461        C466   1.393       .  A
C461        H468   1.083       .  S
C462        C463   1.409       .  A
C463        C464   1.391       .  A
C463       Br470   1.927       .  S
C464        C465   1.402       .  A
C464        H469   1.084       .  S
C465        C466   1.411       .  A
C466       Br467   1.921       .  S
C471        C472   1.412       .  A
C471        C476   1.414       .  A
C471        H478   1.083       .  S
C472        C473   1.413       .  A
C473        C474   1.395       .  A
C473       Br480   1.923       .  S
C474        C475   1.401       .  A
C474        H479   1.073       .  S
C475        C476   1.410       .  A
C476       Br477   1.915       .  S
C481        C482   1.401       .  A
C481        C486   1.407       .  A
C481        H488   1.083       .  S
C482        C483   1.410       .  A
C483        C484   1.422       .  A
C483       Br490   1.914       .  S
C484        C485   1.418       .  A
C484        H489   1.079       .  S
C485        C486   1.417       .  A
C486       Br487   1.913       .  S
C491        C492   1.404       .  A
C491        C496   1.400       .  A
C491        H498   1.083       .  S
C492        C493   1.423       .  A
C493        C494   1.383       .  A
C493       Br500   1.919       .  S
C494        C495   1.392       .  A
C494        H499   1.085       .  S
C495        C496   1.413       .  A
C496       Br497   1.916       .  S
C501        C502   1.407       .  A
C501        C506   1.407   1_556  A
C501        H508   1.081       .  S
C502        C503   1.414       .  A
C503        C504   1.384   1_556  A
C503       Br510   1.905       .  S
C504        C505   1.395       .  A
C504        H509   1.085       .  S
C505        C506   1.412       .  A
C506       Br507   1.913       .  S
C511        C512   1.414       .  A
C511        C516   1.420       .  A
C511        H518   1.083       .  S
C512        C513   1.404       .  A
C513        C514   1.399       .  A
C513       Br520   1.911       .  S
C514        C515   1.407       .  A
C514        H519   1.073       .  S
C515        C516   1.412       .  A
C516       Br517   1.917       .  S
C521        C522   1.405       .  A
C521        C526   1.400       .  A
C521        H528   1.082       .  S
C522        C523   1.401       .  A
C523        C524   1.385       .  A
C523       Br530   1.902       .  S
C524        C525   1.404       .  A
C524        H529   1.083       .  S
C525        C526   1.417       .  A
C526       Br527   1.920       .  S
C531        C532   1.402       .  A
C531        C536   1.387       .  A
C531        H538   1.083       .  S
C532        C533   1.413       .  A
C533        C534   1.394       .  A
C533       Br540   1.922       .  S
C534        C535   1.400       .  A
C534        H539   1.084       .  S
C535        C536   1.408       .  A
C536       Br537   1.914       .  S
C541        C542   1.407       .  A
C541        C546   1.408       .  A
C541        H548   1.082       .  S
C542        C543   1.413       .  A
C543        C544   1.393       .  A
C543       Br550   1.920       .  S
C544        C545   1.397       .  A
C544        H549   1.081       .  S
C545        C546   1.419       .  A
C546       Br547   1.918       .  S
C551        C552   1.414       .  A
C551        C556   1.418   1_455  A
C551        H558   1.072       .  S
C552        C553   1.407       .  A
C553        C554   1.411   1_455  A
C553       Br560   1.914       .  S
C554        C555   1.412       .  A
C554        H559   1.080       .  S
C555        C556   1.416       .  A
C556       Br557   1.917       .  S
C561        C562   1.402       .  A
C561        C566   1.386       .  A
C561        H568   1.081       .  S
C562        C563   1.405       .  A
C563        C564   1.398       .  A
C563       Br570   1.918       .  S
C564        C565   1.410       .  A
C564        H569   1.082       .  S
C565        C566   1.416       .  A
C566       Br567   1.928       .  S
C571        C572   1.419       .  A
C571        C576   1.417       .  A
C571        H578   1.082       .  S
C572        C573   1.410       .  A
C573        C574   1.413       .  A
C573       Br580   1.921       .  S
C574        C575   1.407       .  A
C574        H579   1.073       .  S
C575        C576   1.414       .  A
C576       Br577   1.916       .  S
C581        C582   1.407       .  A
C581        C586   1.416       .  A
C581        H588   1.083       .  S
C582        C583   1.382       .  A
C583        C584   1.385       .  A
C583       Br590   1.915       .  S
C584        C585   1.409       .  A
C584        H589   1.069       .  S
C585        C586   1.425       .  A
C586       Br587   1.917       .  S
C591        C592   1.399       .  A
C591        C596   1.385       .  A
C591        H598   1.074       .  S
C592        C593   1.425       .  A
C593        C594   1.434       .  A
C593       Br600   1.914       .  S
C594        C595   1.417       .  A
C594        H599   1.082       .  S
C595        C596   1.412       .  A
C596       Br597   1.904       .  S
C601        C602   1.405       .  A
C601        C606   1.414   1_556  A
C601        H608   1.079       .  S
C602        C603   1.416       .  A
C603        C604   1.376   1_556  A
C603       Br610   1.909       .  S
C604        C605   1.387       .  A
C604        H609   1.080       .  S
C605        C606   1.408       .  A
C606       Br607   1.914       .  S
C611        C612   1.422       .  A
C611        C616   1.427   1_455  A
C611        H618   1.082       .  S
C612        C613   1.415       .  A
C613        C614   1.380   1_455  A
C613       Br620   1.911       .  S
C614        C615   1.381       .  A
C614        H619   1.067       .  S
C615        C616   1.416       .  A
C616       Br617   1.912       .  S
C621        C622   1.397       .  A
C621        C626   1.382       .  A
C621        H628   1.066       .  S
C622        C623   1.407       .  A
C623        C624   1.416       .  A
C623       Br630   1.913       .  S
C624        C625   1.419       .  A
C624        H629   1.083       .  S
C625        C626   1.409       .  A
C626       Br627   1.935       .  S
C631        C632   1.386       .  A
C631        C636   1.385       .  A
C631        H638   1.081       .  S
C632        C633   1.407       .  A
C633        C634   1.406       .  A
C633       Br640   1.917       .  S
C634        C635   1.410       .  A
C634        H639   1.083       .  S
C635        C636   1.431       .  A
C636       Br637   1.915       .  S
C641        C642   1.405       .  A
C641        C646   1.389       .  A
C641        H648   1.077       .  S
C642        C643   1.417       .  A
C643        C644   1.405       .  A
C643       Br650   1.915       .  S
C644        C645   1.404       .  A
C644        H649   1.083       .  S
C645        C646   1.387       .  A
C646       Br647   1.918       .  S
C651        C652   1.399       .  A
C651        C656   1.387       .  A
C651        H658   1.078       .  S
C652        C653   1.412       .  A
C653        C654   1.408       .  A
C653       Br660   1.918       .  S
C654        C655   1.410       .  A
C654        H659   1.083       .  S
C655        C656   1.414       .  A
C656       Br657   1.913       .  S
C661        C662   1.641       .  A
C661        C666   1.612       .  A
C661        H668   1.083       .  S
C662        C663   1.631       .  A
C663        C664   1.587       .  A
C663       Br670   1.909       .  S
C664        C665   1.613       .  A
C664        H669   1.082       .  S
C665        C666   1.615       .  A
C666       Br667   1.911       .  S
C671        C672   1.401       .  A
C671        C676   1.390       .  A
C671        H678   1.066       .  S
C672        C673   1.507       .  A
C673        C674   1.455       .  A
C673       Br680   3.706       .  S
C674        C675   1.402       .  A
C674        H679   1.079       .  S
C675        C676   1.398       .  A
C676       Br677   1.921       .  S
C681        C682   1.396       .  A
C681        C686   1.392       .  A
C681        H688   1.080       .  S
C682        C683   1.405       .  A
C683        C684   1.395       .  A
C683       Br690   1.915       .  S
C684        C685   1.404       .  A
C684        H689   1.076       .  S
C685        C686   1.409       .  A
C686       Br687   1.915       .  S
C691        C692   1.393       .  A
C691        C696   1.382       .  A
C691        H698   1.051       .  S
C692        C693   1.410       .  A
C693        C694   1.411       .  A
C693       Br700   1.914       .  S
C694        C695   1.416       .  A
C694        H699   1.083       .  S
C695        C696   1.408       .  A
C696       Br697   1.924       .  S
C701        C702   1.405       .  A
C701        C706   1.408   1_556  A
C701        H708   1.082       .  S
C702        C703   1.403       .  A
C703        C704   1.381   1_556  A
C703       Br710   1.927       .  S
C704        C705   1.393       .  A
C704        H709   1.071       .  S
C705        C706   1.417       .  A
C706       Br707   1.916       .  S
C711        C712   1.392       .  A
C711        C716   1.372       .  A
C711        H718   1.077       .  S
C712        C713   1.414       .  A
C713        C714   1.417       .  A
C713       Br720   1.914       .  S
C714        C715   1.411       .  A
C714        H719   1.083       .  S
C715        C716   1.406       .  A
C716       Br717   1.898       .  S
C721        C722   1.416       .  A
C721        C726   1.415       .  A
C721        H728   1.083       .  S
C722        C723   1.428       .  A
C723        C724   1.373       .  A
C723       Br730   1.896       .  S
C724        C725   1.380       .  A
C724        H729   1.083       .  S
C725        C726   1.409       .  A
C726       Br727   1.914       .  S
C731        C732   1.389       .  A
C731        C736   1.395       .  A
C731        H738   1.075       .  S
C732        C733   1.420       .  A
C733        C734   1.427       .  A
C733       Br740   1.912       .  S
C734        C735   1.415       .  A
C734        H739   1.082       .  S
C735        C736   1.416       .  A
C736       Br737   1.911       .  S
C741        C742   1.394       .  A
C741        C746   1.375       .  A
C741        H748   1.085       .  S
C742        C743   1.409       .  A
C743        C744   1.407       .  A
C743       Br750   1.916       .  S
C744        C745   1.410       .  A
C744        H749   1.083       .  S
C745        C746   1.413       .  A
C746       Br747   1.905       .  S
C751        C752   1.437       .  A
C751        C756   1.457   1_545  A
C751        H758   1.080       .  S
C752        C753   1.382       .  A
C753        C754   1.374   1_545  A
C753       Br760   1.927       .  S
C754        C755   1.383       .  A
C754        H759   1.075       .  S
C755        C756   1.439       .  A
C756       Br757   1.916       .  S
C761        C762   1.400       .  A
C761        C766   1.418       .  A
C761        H768   1.082       .  S
C762        C763   1.394       .  A
C763        C764   1.415       .  A
C763       Br770   1.916       .  S
C764        C765   1.416       .  A
C764        H769   1.072       .  S
C765        C766   1.428       .  A
C766       Br767   1.912       .  S
C771        C772   1.406       .  A
C771        C776   1.404       .  A
C771        H778   1.084       .  S
C772        C773   1.418       .  A
C773        C774   1.411       .  A
C773       Br780   1.913       .  S
C774        C775   1.408       .  A
C774        H779   1.083       .  S
C775        C776   1.422       .  A
C776       Br777   1.926       .  S
C781        C782   1.402       .  A
C781        C786   1.399       .  A
C781        H788   1.083       .  S
C782        C783   1.424       .  A
C783        C784   1.423       .  A
C783       Br790   1.917       .  S
C784        C785   1.413       .  A
C784        H789   1.083       .  S
C785        C786   1.421       .  A
C786       Br787   1.900       .  S
C791        C792   1.405       .  A
C791        C796   1.413       .  A
C791        H798   1.083       .  S
C792        C793   1.393       .  A
C793        C794   1.386       .  A
C793       Br800   1.915       .  S
C794        C795   1.409       .  A
C794        H799   1.044       .  S
C795        C796   1.422       .  A
C796       Br797   1.919       .  S
C801        C802   1.388       .  A
C801        C806   1.379   1_545  A
C801        H808   1.066       .  S
C802        C803   1.412       .  A
C803        C804   1.426   1_545  A
C803       Br810   1.913       .  S
C804        C805   1.425       .  A
C804        H809   1.082       .  S
C805        C806   1.408       .  A
C806       Br807   1.886       .  S
C811        C812   1.397       .  A
C811        C816   1.387       .  A
C811        H818   1.071       .  S
C812        C813   1.425       .  A
C813        C814   1.409   1_554  A
C813       Br820   1.918       .  S
C814        C815   1.404       .  A
C814        H819   1.083       .  S
C815        C816   1.407   1_556  A
C816       Br817   1.936   1_554  S
C821        C822   1.399       .  A
C821        C826   1.383       .  A
C821        H828   1.083       .  S
C822        C823   1.419       .  A
C823        C824   1.409       .  A
C823       Br830   1.920       .  S
C824        C825   1.412       .  A
C824        H829   1.083       .  S
C825        C826   1.388       .  A
C826       Br827   1.863       .  S
C831        C832   1.408       .  A
C831        C836   1.403       .  A
C831        H838   1.069       .  S
C832        C833   1.414       .  A
C833        C834   1.413       .  A
C833       Br840   1.904       .  S
C834        C835   1.408       .  A
C834        H839   1.076       .  S
C835        C836   1.405       .  A
C836       Br837   1.915       .  S
C841        C842   1.390       .  A
C841        C846   1.382       .  A
C841        H848   1.085       .  S
C842        C843   1.416       .  A
C843        C844   1.412       .  A
C843       Br850   1.922       .  S
C844        C845   1.408       .  A
C844        H849   1.083       .  S
C845        C846   1.411       .  A
C846       Br847   1.892       .  S
C851        C852   1.394       .  A
C851        C856   1.398       .  A
C851        H858   1.072       .  S
C852        C853   1.412       .  A
C853        C854   1.412       .  A
C853       Br860   1.915       .  S
C854        C855   1.414       .  A
C854        H859   1.077       .  S
C855        C856   1.413       .  A
C856       Br857   1.904       .  S
C861        C862   1.381       .  A
C861        C866   1.371       .  A
C861        H868   1.076       .  S
C862        C863   1.419       .  A
C863        C864   1.414       .  A
C863       Br870   1.918       .  S
C864        C865   1.408       .  A
C864        H869   1.083       .  S
C865        C866   1.409       .  A
C866       Br867   1.896       .  S
C871        C872   1.428       .  A
C871        C876   1.425       .  A
C871        H878   1.078       .  S
C872        C873   1.424       .  A
C873        C874   1.395       .  A
C873       Br880   1.898       .  S
C874        C875   1.392       .  A
C874        H879   1.075       .  S
C875        C876   1.410       .  A
C876       Br877   1.913       .  S
C881        C882   1.381       .  A
C881        C886   1.378       .  A
C881        H888   1.044       .  S
C882        C883   1.419       .  A
C883        C884   1.430       .  A
C883       Br890   1.912       .  S
C884        C885   1.418       .  A
C884        H889   1.082       .  S
C885        C886   1.417       .  A
C886       Br887   1.918       .  S
C891        C892   1.386       .  A
C891        C896   1.380       .  A
C891        H898   1.074       .  S
C892        C893   1.407       .  A
C893        C894   1.408       .  A
C893       Br900   1.914       .  S
C894        C895   1.411       .  A
C894        H899   1.083       .  S
C895        C896   1.416       .  A
C896       Br897   1.912       .  S
C901        C902   1.396       .  A
C901        C906   1.392   1_565  A
C901        H908   1.081       .  S
C902        C903   1.427       .  A
C903        C904   1.412   1_565  A
C903       Br910   1.914       .  S
C904        C905   1.405       .  A
C904        H909   1.082       .  S
C905        C906   1.419       .  A
C906       Br907   1.909       .  S
C911        C912   1.386       .  A
C911        C916   1.379       .  A
C911        H918   1.064       .  S
C912        C913   1.434       .  A
C913        C914   1.441       .  A
C913       Br920   1.911       .  S
C914        C915   1.418       .  A
C914        H919   1.082       .  S
C915        C916   1.370       .  A
C916       Br917   1.912       .  S
C921        C922   1.408       .  A
C921        C926   1.396       .  A
C921        H928   1.073       .  S
C922        C923   1.401       .  A
C923        C924   1.402       .  A
C923       Br930   1.915       .  S
C924        C925   1.417       .  A
C924        H929   1.083       .  S
C925        C926   1.405       .  A
C926       Br927   1.922       .  S
C931        C932   1.417       .  A
C931        C936   1.404       .  A
C931        H938   1.068       .  S
C932        C933   1.416       .  A
C933        C934   1.407       .  A
C933       Br940   1.910       .  S
C934        C935   1.401       .  A
C934        H939   1.084       .  S
C935        C936   1.406       .  A
C936       Br937   1.917       .  S
C941        C942   1.400       .  A
C941        C946   1.391       .  A
C941        H948   1.080       .  S
C942        C943   1.411       .  A
C943        C944   1.399       .  A
C943       Br950   1.927       .  S
C944        C945   1.407       .  A
C944        H949   1.083       .  S
C945        C946   1.415       .  A
C946       Br947   1.920       .  S
C951        C952   1.414       .  A
C951        C956   1.414   1_655  A
C951        H958   1.076       .  S
C952        C953   1.431       .  A
C953        C954   1.380   1_655  A
C953       Br960   1.912       .  S
C954        C955   1.383       .  A
C954        H959   1.079       .  S
C955        C956   1.412       .  A
C956       Br957   1.913       .  S
C961        C962   1.411       .  A
C961        C966   1.398       .  A
C961        H968   1.083       .  S
C962        C963   1.427       .  A
C963        C964   1.393       .  A
C963       Br970   1.926       .  S
C964        C965   1.396       .  A
C964        H969   1.084       .  S
C965        C966   1.406       .  A
C966       Br967   1.919       .  S
C971        C972   1.408       .  A
C971        C976   1.407       .  A
C971        H978   1.081       .  S
C972        C973   1.404       .  A
C973        C974   1.389       .  A
C973       Br980   1.911       .  S
C974        C975   1.394       .  A
C974        H979   1.077       .  S
C975        C976   1.413       .  A
C976       Br977   1.918       .  S
C981        C982   1.392       .  A
C981        C986   1.381       .  A
C981        H988   1.073       .  S
C982        C983   1.405       .  A
C983        C984   1.405       .  A
C983       Br990   1.915       .  S
C984        C985   1.412       .  A
C984        H989   1.083       .  S
C985        C986   1.418       .  A
C986       Br987   1.922       .  S
C991        C992   1.423       .  A
C991        C996   1.431       .  A
C991        H998   1.082       .  S
C992        C993   1.373       .  A
C993        C994   1.380       .  A
C993      Br1000   1.924       .  S
C994        C995   1.390       .  A
C994        H999   1.077       .  S
C995        C996   1.424       .  A
C996       Br997   1.918       .  S
C1001      C1002   1.410       .  A
C1001      C1006   1.409   1_545  A
C1001      H1008   1.073       .  S
C1002      C1003   1.410       .  A
C1003      C1004   1.384   1_545  A
C1003     Br1010   1.897       .  S
C1004      C1005   1.395       .  A
C1004      H1009   1.075       .  S
C1005      C1006   1.414       .  A
C1006     Br1007   1.911       .  S
C1011      C1012   1.410       .  A
C1011      C1016   1.425   1_455  A
C1011      H1018   1.082       .  S
C1012      C1013   1.418       .  A
C1013      C1014   1.404   1_455  A
C1013     Br1020   1.908       .  S
C1014      C1015   1.402       .  A
C1014      H1019   1.081       .  S
C1015      C1016   1.427       .  A
C1016     Br1017   1.923       .  S
