geometry optimzed in LAMMPS
_audit_creation_date              2020-11-30 
_audit_creation_method            'lammps2cif' 
_symmetry_space_group_name_H-M    'P1' 
_symmetry_Int_Tables_number       1 
_symmetry_cell_setting            triclinic 
loop_ 
_symmetry_equiv_pos_as_xyz 
  x,y,z 
_cell_length_a                    35.05558976 
_cell_length_b                    31.78081979696215 
_cell_length_c                    34.918319253941554 
_cell_angle_alpha                 98.210984955846 
_cell_angle_beta                  73.61869143431973 
_cell_angle_gamma                 96.79074607110921 
loop_ 
_atom_site_label 
_atom_site_type_symbol 
_atom_site_fract_x 
_atom_site_fract_y 
_atom_site_fract_z 
_atom_site_charge 
O1          O  0.97540323  0.03451035  0.10225225    -0.80800
O2          O  0.98128709  0.00519901  0.92032518    -0.65500
O3          O  0.96712673  0.98800119  0.02946951    -1.12100
C4          C  0.10806695  0.98448815  0.98785296     1.06100
O5          O  0.02137705  0.95306543  0.89803440    -0.78700
O6          O  0.04401116  0.91106888  0.94857102    -0.66300
Ni7        Ni  0.93575087  0.02430680  0.07244784     1.34900
C8          C  0.02961615  0.90120845  0.98404022     0.84800
O9          O  0.91627429  0.99490909  0.98192830    -0.79200
O10         O  0.89242085  0.01593288  0.04783905    -0.89500
C11         C  0.00026668  0.97988863  0.89179756     0.84400
O12         O  0.95405698  0.07733113  0.05098794    -0.67700
O13         O  0.10423344  0.97338663  0.95247247    -0.87000
C14         C  0.96871051  0.08679759  0.01537951     0.85200
C15         C  0.88755341  0.00315905  0.01309726     1.06800
H16         H  0.04034410  0.02849488  0.96791437     0.38600
O17         O  0.02867382  0.99966302  0.97075914    -1.09600
O18         O  0.02057888  0.92860855  0.01474992    -0.66300
Ni19       Ni  0.02292024  0.98994134  0.02478000     1.26300
O20         O  0.97586007  0.05899498  0.98483021    -0.66500
O21         O  0.07911614  0.99294696  0.01859986    -0.78800
C22         C  0.99519023  0.00632615  0.10839910     0.84600
O23         O  0.01433416  0.98156730  0.07953721    -0.66000
Ni24       Ni  0.06099830  0.96441271  0.92767102     1.27400
Ni25       Ni  0.97278013  0.99761144  0.97536371     1.26100
H26         H  0.95535937  0.95920301  0.03262630     0.39200
O27         O  0.97603611  0.03335947  0.60450560    -0.80800
O28         O  0.98513159  0.00905398  0.42007632    -0.65500
O29         O  0.97029039  0.98963826  0.52905614    -1.12100
C30         C  0.11170162  0.99087712  0.48932584     1.06100
O31         O  0.02750658  0.95943900  0.39689979    -0.78700
O32         O  0.05022503  0.91620422  0.44687638    -0.66300
Ni33       Ni  0.93840572  0.02539469  0.57221542     1.34900
C34         C  0.03479579  0.90499229  0.48179540     0.84800
O35         O  0.92025112  0.99462669  0.48084161    -0.79200
O36         O  0.89628467  0.01947433  0.54589787    -0.89500
C37         C  0.00640698  0.98632961  0.39079627     0.84400
O38         O  0.95919659  0.07865313  0.55222362    -0.67700
O39         O  0.10859642  0.98056868  0.45357838    -0.87000
C40         C  0.97091181  0.08871686  0.51663797     0.85200
C41         C  0.89160418  0.00458170  0.51144611     1.06800
H42         H  0.04271949  0.03370338  0.46946122     0.38600
O43         O  0.03212358  0.00435010  0.47125488    -1.09600
O44         O  0.02435222  0.93161086  0.51286472    -0.66300
Ni45       Ni  0.02585979  0.99269882  0.52487465     1.26300
O46         O  0.97654791  0.06130199  0.48570039    -0.66500
O47         O  0.08184240  0.99681333  0.51963801    -0.78800
C48         C  0.99892562  0.00709338  0.60862476     0.84600
O49         O  0.01713091  0.98245107  0.57909003    -0.66000
Ni50       Ni  0.06608752  0.97084359  0.42777290     1.27400
Ni51       Ni  0.97637651  0.00003753  0.47499296     1.26100
H52         H  0.95884380  0.96068045  0.53184813     0.39200
O53         O  0.98110490  0.53275358  0.10144612    -0.80800
O54         O  0.98338224  0.51076255  0.92222119    -0.65500
O55         O  0.97049460  0.48850200  0.02938438    -1.12100
C56         C  0.10975218  0.47498135  0.98495102     1.06100
O57         O  0.02190880  0.45802248  0.89527630    -0.78700
O58         O  0.03726745  0.40979305  0.94602924    -0.66300
Ni59       Ni  0.94001757  0.52381837  0.07381183     1.34900
C60         C  0.02402863  0.39975224  0.98155939     0.84800
O61         O  0.91936111  0.50056049  0.98402994    -0.79200
O62         O  0.89576567  0.51713329  0.05074969    -0.89500
C63         C  0.00056444  0.48633246  0.89195995     0.84400
O64         O  0.95737641  0.57759301  0.05385423    -0.67700
O65         O  0.10388314  0.46370909  0.95037286    -0.87000
C66         C  0.97246223  0.58839786  0.01882127     0.85200
C67         C  0.89095584  0.50844632  0.01553007     1.06800
H68         H  0.04460478  0.52773646  0.96697933     0.38600
O69         O  0.03166381  0.49934142  0.96989115    -1.09600
O70         O  0.02116719  0.42672140  0.01264650    -0.66300
Ni71       Ni  0.02633260  0.48792132  0.02353926     1.26300
O72         O  0.98099346  0.56156767  0.98761633    -0.66500
O73         O  0.08251251  0.48758339  0.01589152    -0.78800
C74         C  0.99965339  0.50344055  0.10744583     0.84600
O75         O  0.01821012  0.47853890  0.07821396    -0.66000
Ni76       Ni  0.06076953  0.46221892  0.92585843     1.27400
Ni77       Ni  0.97575156  0.50040969  0.97619756     1.26100
H78         H  0.95796955  0.45987078  0.03166494     0.39200
O79         O  0.97419221  0.53660613  0.60247369    -0.80800
O80         O  0.99295797  0.51221118  0.41809858    -0.65500
O81         O  0.97113054  0.49191335  0.52726150    -1.12100
C82         C  0.11065620  0.48199116  0.49471769     1.06100
O83         O  0.03307847  0.46005377  0.39571698    -0.78700
O84         O  0.04521430  0.41334314  0.44952488    -0.66300
Ni85       Ni  0.93770413  0.52748662  0.56926521     1.34900
C86         C  0.02943006  0.40325900  0.48481077     0.84800
O87         O  0.92540999  0.50170857  0.47566292    -0.79200
O88         O  0.89708672  0.52045019  0.54125562    -0.89500
C89         C  0.01270590  0.48762681  0.38948181     0.84400
O90         O  0.95739748  0.58120063  0.54960319    -0.67700
O91         O  0.10824103  0.47015537  0.45897222    -0.87000
C92         C  0.97439581  0.59135808  0.51458542     0.85200
C93         C  0.89525556  0.51017747  0.50513427     1.06800
H94         H  0.04841323  0.53169320  0.46952004     0.38600
O95         O  0.03576557  0.50312135  0.47173997    -1.09600
O96         O  0.02241640  0.43083456  0.51562855    -0.66300
Ni97       Ni  0.02592134  0.49235357  0.52621733     1.26300
O98         O  0.98456585  0.56419894  0.48386510    -0.66500
O99         O  0.08125901  0.49370221  0.52371668    -0.78800
C100        C  0.99430867  0.50918622  0.60935633     0.84600
O101        O  0.01345590  0.48355952  0.58130180    -0.66000
Ni102      Ni  0.06837638  0.46636605  0.43014339     1.27400
Ni103      Ni  0.98085689  0.50290833  0.47296597     1.26100
H104        H  0.95878957  0.46331837  0.52911321     0.39200
O105        O  0.47504635  0.04756052  0.10267871    -0.80800
O106        O  0.48538139  0.02267105  0.92070084    -0.65500
O107        O  0.46658390  0.00216949  0.02950484    -1.12100
C108        C  0.60560682  0.98746197  0.99085475     1.06100
O109        O  0.52173744  0.96746767  0.89781946    -0.78700
O110        O  0.53436614  0.92014617  0.95049458    -0.66300
Ni111      Ni  0.43594538  0.03923261  0.07227240     1.34900
C112        C  0.51930936  0.91107016  0.98617284     0.84800
O113        O  0.41904974  0.01471049  0.98049976    -0.79200
O114        O  0.39339853  0.03301919  0.04670074    -0.89500
C115        C  0.50364132  0.99727612  0.89187106     0.84400
O116        O  0.45593861  0.09234872  0.05158654    -0.67700
O117        O  0.60102487  0.97418498  0.95605585    -0.87000
C118        C  0.47310053  0.10216198  0.01648972     0.85200
C119        C  0.38987500  0.02313022  0.01105626     1.06800
H120        H  0.54370291  0.03850269  0.96877449     0.38600
O121        O  0.52982933  0.01055937  0.97185173    -1.09600
O122        O  0.51542867  0.93880017  0.01679393    -0.66300
Ni123      Ni  0.52162931  0.00020558  0.02622946     1.26300
O124        O  0.48135636  0.07454285  0.98588016    -0.66500
O125        O  0.57730585  0.99927220  0.02109008    -0.78800
C126        C  0.49362966  0.01874504  0.10960152     0.84600
O127        O  0.51078551  0.99192805  0.08139660    -0.66000
Ni128      Ni  0.55929544  0.97193824  0.92964156     1.27400
Ni129      Ni  0.47473089  0.01327716  0.97543404     1.26100
H130        H  0.45322636  0.97389830  0.03194224     0.39200
O131        O  0.48037159  0.04257517  0.60122781    -0.80800
O132        O  0.48676349  0.02017903  0.42060387    -0.65500
O133        O  0.47157657  0.99838398  0.52852434    -1.12100
C134        C  0.61116255  0.98860078  0.48681135     1.06100
O135        O  0.52516810  0.96678223  0.39553534    -0.78700
O136        O  0.54028965  0.91964494  0.44705480    -0.66300
Ni137      Ni  0.44015150  0.03336795  0.57255404     1.34900
C138        C  0.52631219  0.90991825  0.48262341     0.84800
O139        O  0.42196993  0.01005824  0.48168858    -0.79200
O140        O  0.39669039  0.02586219  0.54839290    -0.89500
C141        C  0.50374519  0.99447728  0.39123808     0.84400
O142        O  0.45733962  0.08742819  0.55285627    -0.67700
O143        O  0.60601732  0.97538765  0.45222849    -0.87000
C144        C  0.47284222  0.09823385  0.51783279     0.85200
C145        C  0.39292194  0.01636801  0.51286104     1.06800
H146        H  0.54649186  0.03803949  0.46721211     0.38600
O147        O  0.53359233  0.00962156  0.47006927    -1.09600
O148        O  0.52269651  0.93723730  0.51348688    -0.66300
Ni149      Ni  0.52715029  0.99847337  0.52399959     1.26300
O150        O  0.48251933  0.07149978  0.48667700    -0.66500
O151        O  0.58312034  0.99947572  0.51762199    -0.78800
C152        C  0.49851081  0.01316254  0.60770533     0.84600
O153        O  0.51802638  0.98884756  0.57867529    -0.66000
Ni154      Ni  0.56343134  0.97224790  0.42680443     1.27400
Ni155      Ni  0.47799804  0.01030770  0.47506246     1.26100
H156        H  0.45926258  0.96963957  0.53052152     0.39200
O157        O  0.47218277  0.54404545  0.10230906    -0.80800
O158        O  0.48846402  0.51679938  0.91749596    -0.65500
O159        O  0.47130322  0.49809610  0.02662235    -1.12100
C160        C  0.60858234  0.49176954  0.99651186     1.06100
O161        O  0.54061757  0.47793951  0.89086226    -0.78700
O162        O  0.53649157  0.42656658  0.94808505    -0.66300
Ni163      Ni  0.43563332  0.53110400  0.06904721     1.34900
C164        C  0.52684851  0.41601668  0.98348909     0.84800
O165        O  0.42312102  0.50173378  0.97583327    -0.79200
O166        O  0.39456039  0.51981724  0.04146059    -0.89500
C167        C  0.51274122  0.49817092  0.88758117     0.84400
O168        O  0.45168377  0.58538180  0.04938089    -0.67700
O169        O  0.60343290  0.47217495  0.96371965    -0.87000
C170        C  0.46796300  0.59633995  0.01449320     0.85200
C171        C  0.39267488  0.50802059  0.00554907     1.06800
H172        H  0.54585141  0.54296218  0.96710043     0.38600
O173        O  0.53471533  0.51405013  0.97036705    -1.09600
O174        O  0.52790235  0.44288268  0.01411700    -0.66300
Ni175      Ni  0.52637797  0.50442003  0.02498035     1.26300
O176        O  0.47842635  0.56957070  0.98345493    -0.66500
O177        O  0.58168788  0.51199115  0.02212380    -0.78800
C178        C  0.49525286  0.51924205  0.10845534     0.84600
O179        O  0.51597771  0.49568615  0.07975121    -0.66000
Ni180      Ni  0.56854712  0.47654164  0.93069943     1.27400
Ni181      Ni  0.47900910  0.50832600  0.97236934     1.26100
H182        H  0.46131532  0.46859792  0.02863992     0.39200
O183        O  0.48584359  0.54475089  0.59911318    -0.80800
O184        O  0.48462520  0.52012750  0.42154468    -0.65500
O185        O  0.47476829  0.49764863  0.52801125    -1.12100
C186        C  0.61419651  0.48883662  0.48065143     1.06100
O187        O  0.52313185  0.46743682  0.39440795    -0.78700
O188        O  0.54107140  0.42024730  0.44451146    -0.66300
Ni189      Ni  0.44361915  0.53203982  0.57290044     1.34900
C190        C  0.53157778  0.41064848  0.48022361     0.84800
O191        O  0.42159351  0.50789390  0.48425296    -0.79200
O192        O  0.39825398  0.52142992  0.55132367    -0.89500
C193        C  0.50253479  0.49641669  0.39109247     0.84400
O194        O  0.45697578  0.58631295  0.55279883    -0.67700
O195        O  0.60731029  0.47542879  0.44681750    -0.87000
C196        C  0.47313891  0.59710926  0.51788273     0.85200
C197        C  0.39310834  0.51316728  0.51619623     1.06800
H198        H  0.54689800  0.53816435  0.46383254     0.38600
O199        O  0.53447401  0.50972123  0.46746287    -1.09600
O200        O  0.52852882  0.43833072  0.51085139    -0.66300
Ni201      Ni  0.53102572  0.49973651  0.52087424     1.26300
O202        O  0.48267198  0.57031091  0.48688185    -0.66500
O203        O  0.58758067  0.50227645  0.51178698    -0.78800
C204        C  0.50779284  0.51819953  0.60431447     0.84600
O205        O  0.52493675  0.49203646  0.57542987    -0.66000
Ni206      Ni  0.56323344  0.47260828  0.42344262     1.27400
Ni207      Ni  0.47828735  0.50932930  0.47516904     1.26100
H208        H  0.46344503  0.46858921  0.53035429     0.39200
C209        C  0.47507145  0.49408763  0.79482915    -0.22400
C210        C  0.51037151  0.50700990  0.76687737     0.09600
C211        C  0.54600012  0.51658525  0.77862004     0.10000
C212        C  0.54547121  0.51344008  0.81833497    -0.17300
C213        C  0.51016758  0.50091794  0.84661854    -0.27700
C214        C  0.47455646  0.49032444  0.83455721     0.18300
C215        C  0.50988563  0.50949288  0.72508815     0.12300
C216        C  0.58467256  0.52954216  0.74907616    -0.12100
H217        H  0.57283298  0.52101357  0.82747399     0.12600
C218        C  0.43614565  0.47298567  0.86176340    -0.22900
H219        H  0.44792756  0.48611493  0.78534373     0.08200
C220        C  0.51115832  0.47268588  0.69710906     0.04600
C221        C  0.51217852  0.47684503  0.65739844    -0.20100
C222        C  0.51230178  0.51701955  0.64496234    -0.12400
C223        C  0.51299159  0.55411342  0.67276614     0.13300
C224        C  0.51076011  0.54967591  0.71271644    -0.22800
C225        C  0.51164340  0.42911865  0.70913021    -0.05900
H226        H  0.51182579  0.44841672  0.63620560     0.14800
C227        C  0.51794700  0.59885028  0.66133404    -0.16100
H228        H  0.51090652  0.57790995  0.73419750     0.09100
H229        H  0.42687513  0.44109223  0.84806201     0.07000
H230        H  0.41250455  0.49459775  0.86516897     0.08200
H231        H  0.43847855  0.46906507  0.89197433     0.07200
H232        H  0.58206571  0.55964253  0.73768644     0.02100
H233        H  0.59181023  0.50408658  0.72343978     0.02600
H234        H  0.60991371  0.53487141  0.76303309     0.06100
H235        H  0.51314378  0.40380334  0.68340531     0.05100
H236        H  0.48412373  0.42179888  0.73308265    -0.00700
H237        H  0.53807528  0.42825306  0.72048469     0.00800
H238        H  0.49042257  0.61514671  0.67659426     0.04400
H239        H  0.52488931  0.60007992  0.62855711     0.06400
H240        H  0.54333496  0.61693998  0.67112791     0.07300
C241        C  0.53147009  0.50661770  0.19923643    -0.22400
C242        C  0.49626878  0.51157012  0.23021977     0.09600
C243        C  0.46139987  0.52032486  0.22140255     0.10000
C244        C  0.46240605  0.52360153  0.18151283    -0.17300
C245        C  0.49735142  0.51771815  0.15006804    -0.27700
C246        C  0.53251532  0.50929296  0.15914476     0.18300
C247        C  0.49654627  0.50719746  0.27174590     0.12300
C248        C  0.42294925  0.52526944  0.25399368    -0.12100
H249        H  0.43537770  0.52972874  0.17473421     0.12600
C250        C  0.57143432  0.50402714  0.12718073    -0.22900
H251        H  0.55815890  0.50023683  0.20653453     0.08200
C252        C  0.49509506  0.46681408  0.28461174     0.04600
C253        C  0.49624373  0.46429371  0.32401520    -0.20100
C254        C  0.49849235  0.50121283  0.35094508    -0.12400
C255        C  0.49958039  0.54176473  0.33802530     0.13300
C256        C  0.49859990  0.54414530  0.29849034    -0.22800
C257        C  0.49209472  0.42642439  0.25683799    -0.05900
H258        H  0.49543645  0.43327931  0.33386006     0.14800
C259        C  0.50365723  0.58266111  0.36492949    -0.16100
H260        H  0.49989841  0.57499185  0.28812928     0.09100
H261        H  0.56881405  0.47489309  0.10609977     0.07000
H262        H  0.59617334  0.50060384  0.14029089     0.08200
H263        H  0.57969490  0.53242160  0.11044498     0.07200
H264        H  0.42684714  0.55268661  0.27648569     0.02100
H265        H  0.41419660  0.49577011  0.26909850     0.02600
H266        H  0.39824086  0.53108330  0.24181037     0.06100
H267        H  0.49059614  0.39755513  0.27194254     0.05100
H268        H  0.51859953  0.42567701  0.23039496    -0.00700
H269        H  0.46473299  0.42500966  0.24650117     0.00800
H270        H  0.50608947  0.61117779  0.34906304     0.04400
H271        H  0.53097806  0.58366051  0.37525319     0.06400
H272        H  0.47710600  0.58493245  0.39126359     0.07300
C273        C  0.48680763  0.79303107  0.47085684    -0.22400
C274        C  0.49928479  0.77733723  0.50044794     0.09600
C275        C  0.51894242  0.80544396  0.52514561     0.10000
C276        C  0.52649686  0.84868479  0.51909871    -0.17300
C277        C  0.51487810  0.86450669  0.48885025    -0.27700
C278        C  0.49364458  0.83642660  0.46516173     0.18300
C279        C  0.49184539  0.73121508  0.50488227     0.12300
C280        C  0.53212995  0.78966182  0.55768181    -0.12100
H281        H  0.54233960  0.87011656  0.53757376     0.12600
C282        C  0.47617747  0.85102424  0.43492943    -0.22900
H283        H  0.47106339  0.77132075  0.45246800     0.08200
C284        C  0.45565926  0.71411228  0.52922386     0.04600
C285        C  0.45053843  0.67030935  0.53326740    -0.20100
C286        C  0.48057112  0.64315313  0.51295098    -0.12400
C287        C  0.51687807  0.66052771  0.48851196     0.13300
C288        C  0.52201346  0.70439475  0.48488098    -0.22800
C289        C  0.42256886  0.74214942  0.55085234    -0.05900
H290        H  0.42271327  0.65706369  0.55190250     0.14800
C291        C  0.55087912  0.63346381  0.46734174    -0.16100
H292        H  0.54980710  0.71801022  0.46649735     0.09100
H293        H  0.44381206  0.84066436  0.44187671     0.07000
H294        H  0.49105180  0.83639082  0.40430328     0.08200
H295        H  0.47874439  0.88608521  0.43516635     0.07200
H296        H  0.55356174  0.76503661  0.54424458     0.02100
H297        H  0.50587482  0.77553652  0.57947263     0.02600
H298        H  0.54697511  0.81584846  0.57438205     0.06100
H299        H  0.39628511  0.72375478  0.56875360     0.05100
H300        H  0.41281841  0.75708251  0.52870133    -0.00700
H301        H  0.43325517  0.76757950  0.57159232     0.00800
H302        H  0.54214492  0.60962856  0.44422692     0.04400
H303        H  0.55914978  0.61700777  0.48948432     0.06400
H304        H  0.57777707  0.65290005  0.45183574     0.07300
C305        C  0.46023055  0.21681966  0.52461406    -0.22400
C306        C  0.49792477  0.23153386  0.50190642     0.09600
C307        C  0.52721711  0.20239836  0.48446894     0.10000
C308        C  0.51802773  0.15909948  0.49010340    -0.17300
C309        C  0.48028197  0.14422232  0.51286525    -0.27700
C310        C  0.45071719  0.17348116  0.52983025     0.18300
C311        C  0.50590273  0.27750820  0.49638098     0.12300
C312        C  0.56797696  0.21686720  0.45949115    -0.12100
H313        H  0.54056221  0.13672712  0.47692938     0.12600
C314        C  0.40834422  0.16027993  0.55193119    -0.22900
H315        H  0.43773973  0.23927334  0.53770557     0.08200
C316        C  0.48982358  0.29554767  0.47026489     0.04600
C317        C  0.49879914  0.33909056  0.46563243    -0.20100
C318        C  0.52361284  0.36500169  0.48635116    -0.12400
C319        C  0.54048012  0.34654335  0.51181937     0.13300
C320        C  0.53066466  0.30326046  0.51708045    -0.22800
C321        C  0.46376629  0.26875256  0.44679212    -0.05900
H322        H  0.48620066  0.35308134  0.44585893     0.14800
C323        C  0.57044915  0.37049418  0.53237316    -0.16100
H324        H  0.54327269  0.28914913  0.53678104     0.09100
H325        H  0.38751920  0.17134485  0.53741594     0.07000
H326        H  0.40196126  0.17522544  0.58357988     0.08200
H327        H  0.40183030  0.12536883  0.55178220     0.07200
H328        H  0.58341962  0.24021258  0.47809115     0.02100
H329        H  0.56507001  0.23202687  0.43381658     0.02600
H330        H  0.58691849  0.18979367  0.44727585     0.06100
H331        H  0.45454782  0.28768468  0.42701471     0.05100
H332        H  0.43634513  0.25544361  0.46766808    -0.00700
H333        H  0.48029854  0.24218111  0.42760874     0.00800
H334        H  0.55775746  0.37242714  0.56545621     0.04400
H335        H  0.57986074  0.40314946  0.52401129     0.06400
H336        H  0.59787027  0.35314081  0.52386101     0.07300
C337        C  0.47651995  0.79538334  0.97482638    -0.22400
C338        C  0.49057348  0.77819972  0.00255709     0.09600
C339        C  0.51189387  0.80521289  0.02650583     0.10000
C340        C  0.51969574  0.84873072  0.02133615    -0.17300
C341        C  0.50682460  0.86584168  0.99259971    -0.27700
C342        C  0.48385196  0.83896752  0.96987913     0.18300
C343        C  0.48379049  0.73157977  0.00515752     0.12300
C344        C  0.52664869  0.78795935  0.05725142    -0.12100
H345        H  0.53692380  0.86928463  0.03904151     0.12600
C346        C  0.46542870  0.85512890  0.94119185    -0.22900
H347        H  0.45957666  0.77460533  0.95697272     0.08200
C348        C  0.44785128  0.71301716  0.02866485     0.04600
C349        C  0.44359982  0.66886119  0.03108393    -0.20100
C350        C  0.47422512  0.64265767  0.00998887    -0.12400
C351        C  0.51014652  0.66145703  0.98610106     0.13300
C352        C  0.51439437  0.70567218  0.98405999    -0.22800
C353        C  0.41416431  0.73987132  0.05132254    -0.05900
H354        H  0.41603861  0.65462382  0.04930601     0.14800
C355        C  0.54479058  0.63563834  0.96406007    -0.16100
H356        H  0.54194678  0.72032741  0.96620346     0.09100
H357        H  0.43276775  0.84632443  0.94969950     0.07000
H358        H  0.47847977  0.84019894  0.91017521     0.08200
H359        H  0.46949862  0.89023233  0.94146675     0.07200
H360        H  0.54763219  0.76328903  0.04223406     0.02100
H361        H  0.50101325  0.77350756  0.07950536     0.02600
H362        H  0.54251113  0.81340017  0.07369216     0.06100
H363        H  0.38826163  0.72042502  0.06855531     0.05100
H364        H  0.40397560  0.75550960  0.02990802    -0.00700
H365        H  0.42444155  0.76472555  0.07280687     0.00800
H366        H  0.53630008  0.61170971  0.94084469     0.04400
H367        H  0.55404749  0.61943449  0.98572473     0.06400
H368        H  0.57100420  0.65596709  0.94854651     0.07300
C369        C  0.52446448  0.20798266  0.98043921    -0.22400
C370        C  0.49672907  0.23643246  0.00327668     0.09600
C371        C  0.46176658  0.22090821  0.03056434     0.10000
C372        C  0.45515964  0.17708277  0.03430405    -0.17300
C373        C  0.48255932  0.14817802  0.01115146    -0.27700
C374        C  0.51789432  0.16399357  0.98397831     0.18300
C375        C  0.50474246  0.28248148  0.99829842     0.12300
C376        C  0.43154651  0.25071179  0.05586469    -0.12100
H377        H  0.42808874  0.16523268  0.05511143     0.12600
C378        C  0.54945854  0.13516022  0.95969700    -0.22900
H379        H  0.55140529  0.22036332  0.95980359     0.08200
C380        C  0.52842945  0.30987342  0.01950462     0.04600
C381        C  0.53402799  0.35349889  0.01485698    -0.20100
C382        C  0.51671638  0.37039193  0.98925198    -0.12400
C383        C  0.49219878  0.34290274  0.96863527     0.13300
C384        C  0.48702084  0.29920110  0.97308690    -0.22800
C385        C  0.54782527  0.29300721  0.04694575    -0.05900
H386        H  0.55280038  0.37441067  0.03065622     0.14800
C387        C  0.46964580  0.35840825  0.94312251    -0.16100
H388        H  0.46828200  0.27805950  0.95740689     0.09100
H389        H  0.57598301  0.15341012  0.94199277     0.07000
H390        H  0.53751262  0.11199577  0.93813784     0.08200
H391        H  0.55951704  0.11787741  0.98009899     0.07200
H392        H  0.41964360  0.26706155  0.03616950     0.02100
H393        H  0.44582113  0.27495649  0.07483267     0.02600
H394        H  0.40604576  0.23345392  0.07598599     0.06100
H395        H  0.56522517  0.31876008  0.06139505     0.05100
H396        H  0.56848088  0.26887988  0.02950622    -0.00700
H397        H  0.52462748  0.27798966  0.07100717     0.00800
H398        H  0.48092244  0.34449441  0.91140649     0.04400
H399        H  0.47174746  0.39356096  0.94429614     0.06400
H400        H  0.43745935  0.34792872  0.95397662     0.07300
C401        C  0.49430761  0.96923506  0.70510982    -0.22400
C402        C  0.49707605  0.00722623  0.73032330     0.09600
C403        C  0.50070300  0.04671569  0.71521188     0.10000
C404        C  0.50115345  0.04734713  0.67505424    -0.17300
C405        C  0.49847165  0.00940306  0.64945363    -0.27700
C406        C  0.49439261  0.96962181  0.66493704     0.18300
C407        C  0.49784610  0.00493285  0.77205277     0.12300
C408        C  0.50457173  0.08814959  0.74135254    -0.12100
H409        H  0.50408803  0.07776493  0.66341701     0.12600
C410        C  0.48829501  0.92699252  0.64117737    -0.22900
H411        H  0.49147569  0.93900951  0.71709700     0.08200
C412        C  0.46272548  0.00465571  0.80409648     0.04600
C413        C  0.46549726  0.00302839  0.84320167    -0.20100
C414        C  0.50254770  0.00111010  0.85064861    -0.12400
C415        C  0.53776865  0.00225516  0.81845569     0.13300
C416        C  0.53481591  0.00364470  0.77951231    -0.22800
C417        C  0.42245900  0.00555204  0.79689554    -0.05900
H418        H  0.43861435  0.00236548  0.86793117     0.14800
C419        C  0.57908885  0.00378176  0.82399739    -0.16100
H420        H  0.56169291  0.00447541  0.75476205     0.09100
H421        H  0.46083443  0.90922359  0.65785351     0.07000
H422        H  0.51409119  0.90809682  0.63733383     0.08200
H423        H  0.48440582  0.92926424  0.61125105     0.07200
H424        H  0.53162462  0.08951364  0.75218656     0.02100
H425        H  0.47794423  0.09064810  0.76758392     0.02600
H426        H  0.50719757  0.11614301  0.72475241     0.06100
H427        H  0.39808383  0.00502684  0.82523812     0.05100
H428        H  0.41684385  0.97728595  0.77594474    -0.00700
H429        H  0.42148557  0.03494749  0.78356905     0.00800
H430        H  0.59350062  0.97463537  0.80781951     0.04400
H431        H  0.57946096  0.00644815  0.85583913     0.06400
H432        H  0.59727731  0.03212907  0.81129610     0.07300
C433        C  0.50047626  0.04807420  0.21738050    -0.22400
C434        C  0.49539653  0.00760650  0.23044212     0.09600
C435        C  0.49012214  0.97101706  0.20382466     0.10000
C436        C  0.49052012  0.97571924  0.16436264    -0.17300
C437        C  0.49522694  0.01624521  0.15115516    -0.27700
C438        C  0.50029801  0.05295655  0.17807167     0.18300
C439        C  0.49738732  0.00416175  0.27165618     0.12300
C440        C  0.48385054  0.92710123  0.21720004    -0.12100
H441        H  0.48633553  0.94760629  0.14391205     0.12600
C442        C  0.50690754  0.09718244  0.16529410    -0.22900
H443        H  0.50486330  0.07591507  0.23804426     0.08200
C444        C  0.53397782  0.99996253  0.27943342     0.04600
C445        C  0.53464840  0.99610416  0.31870948    -0.20100
C446        C  0.49964317  0.99679576  0.35058492    -0.12400
C447        C  0.46275236  0.00052375  0.34262282     0.13300
C448        C  0.46226014  0.00462279  0.30321231    -0.22800
C449        C  0.57236416  0.00003441  0.24630399    -0.05900
H450        H  0.56289583  0.99335074  0.32473422     0.14800
C451        C  0.42323346  0.99838299  0.37413763    -0.16100
H452        H  0.43416316  0.00741075  0.29687857     0.09100
H453        H  0.51292489  0.12167877  0.18941111     0.07000
H454        H  0.47996661  0.10535479  0.15816776     0.08200
H455        H  0.53295988  0.09888671  0.13849866     0.07200
H456        H  0.45671697  0.92502604  0.24284993     0.02100
H457        H  0.50998579  0.92054434  0.22675092     0.02600
H458        H  0.47990805  0.90195681  0.19271901     0.06100
H459        H  0.59832501  0.99648120  0.25754506     0.05100
H460        H  0.57775646  0.03058693  0.23293872    -0.00700
H461        H  0.57052258  0.97323219  0.22258140     0.00800
H462        H  0.40967646  0.02919777  0.37875255     0.04400
H463        H  0.42556606  0.99104607  0.40334910     0.06400
H464        H  0.40279765  0.97264894  0.36386131     0.07300
C465        C  0.80790281  0.52100735  0.46337422    -0.22400
C466        C  0.77698057  0.49893110  0.48993328     0.09600
C467        C  0.78522385  0.48022422  0.52065721     0.10000
C468        C  0.82427362  0.48425353  0.52432761    -0.17300
C469        C  0.85536255  0.50662203  0.49807502    -0.27700
C470        C  0.84702242  0.52566329  0.46731898     0.18300
C471        C  0.73571982  0.49718554  0.48640124     0.12300
C472        C  0.75267186  0.45661113  0.54998410    -0.12100
H473        H  0.83061604  0.46983605  0.54796053     0.12600
C474        C  0.87766951  0.55294597  0.43959344    -0.22900
H475        H  0.80119715  0.53574956  0.44012814     0.08200
C476        C  0.71193849  0.53168792  0.50246993     0.04600
C477        C  0.67213144  0.52761985  0.50081303    -0.20100
C478        C  0.65559143  0.48985850  0.48340449    -0.12400
C479        C  0.67943587  0.45498720  0.46781447     0.13300
C480        C  0.71936656  0.45942269  0.46908208    -0.22800
C481        C  0.72847803  0.57257020  0.52174539    -0.05900
H482        H  0.65394275  0.55429452  0.51269093     0.14800
C483        C  0.66367176  0.41204287  0.45131066    -0.16100
H484        H  0.73765039  0.43277185  0.45744815     0.09100
H485        H  0.86679631  0.58495412  0.44225035     0.07000
H486        H  0.88211839  0.53800346  0.40807430     0.08200
H487        H  0.90693088  0.55804933  0.44642840     0.07200
H488        H  0.73942520  0.42875100  0.53367818     0.02100
H489        H  0.72906792  0.47817404  0.56613800     0.02600
H490        H  0.76415207  0.44469839  0.57266078     0.06100
H491        H  0.70576616  0.59620255  0.53312878     0.05100
H492        H  0.75405400  0.58703895  0.49945909    -0.00700
H493        H  0.73868973  0.56591318  0.54746255     0.00800
H494        H  0.67965158  0.40517878  0.41905499     0.04400
H495        H  0.63124367  0.40953112  0.45432153     0.06400
H496        H  0.66895833  0.38698609  0.46794596     0.07300
C497        C  0.21412412  0.45407946  0.49090536    -0.22400
C498        C  0.22912344  0.49231530  0.50874892     0.09600
C499        C  0.20422923  0.52597039  0.52452826     0.10000
C500        C  0.16487205  0.52088654  0.52134824    -0.17300
C501        C  0.15016394  0.48312512  0.50221941    -0.27700
C502        C  0.17480850  0.44881748  0.48774340     0.18300
C503        C  0.27113939  0.49657593  0.51037079     0.12300
C504        C  0.21944709  0.56737233  0.54417498    -0.05700
H505        H  0.14598810  0.54709043  0.53246515     0.12600
C506        C  0.16053043  0.40592394  0.46970770    -0.22900
H507        H  0.23325534  0.42811340  0.47942356     0.08200
C508        C  0.28233041  0.48091255  0.54102358     0.04600
C509        C  0.32234537  0.48697772  0.54200072    -0.20100
C510        C  0.35151076  0.50841676  0.51302669    -0.12400
C511        C  0.33995596  0.52450963  0.48243912     0.13300
C512        C  0.30000161  0.51761674  0.48121465    -0.22800
C513        C  0.25196687  0.45806499  0.57276535    -0.05900
H514        H  0.33096920  0.47460513  0.56543876     0.14800
C515        C  0.36790273  0.55092973  0.45182624    -0.16100
H516        H  0.29098064  0.52990119  0.45796024     0.09100
H517        H  0.16548393  0.38058727  0.48622204     0.07000
H518        H  0.17768894  0.40000742  0.43771611     0.08200
H519        H  0.12829814  0.40292513  0.47148826     0.07200
H520        H  0.24491674  0.58246611  0.52222435     0.02100
H521        H  0.22948651  0.56124687  0.57017012     0.02600
H522        H  0.19602050  0.59023649  0.55521935     0.06100
H523        H  0.26564866  0.44812482  0.59477561     0.05100
H524        H  0.23819341  0.42903573  0.55847223    -0.00700
H525        H  0.22833696  0.47942113  0.58938079     0.00800
H526        H  0.37212439  0.53313163  0.42135565     0.04400
H527        H  0.39742034  0.56016896  0.45743374     0.06400
H528        H  0.35467265  0.58117467  0.45243427     0.07300
C529        C  0.79958721  0.51964540  0.97998749    -0.22400
C530        C  0.76944921  0.50070740  0.00968191     0.09600
C531        C  0.77923837  0.48459159  0.04090802     0.10000
C532        C  0.81921861  0.48734520  0.04153181    -0.17300
C533        C  0.84969639  0.50644024  0.01198088    -0.27700
C534        C  0.83958944  0.52363262  0.98112399     0.18300
C535        C  0.72761041  0.49851509  0.00798945     0.12300
C536        C  0.74737492  0.46512487  0.07390165    -0.12100
H537        H  0.82674208  0.47445672  0.06534705     0.12600
C538        C  0.86927513  0.54838755  0.95028589    -0.22900
H539        H  0.79163357  0.53251232  0.95639575     0.08200
C540        C  0.70462705  0.53390367  0.02200300     0.04600
C541        C  0.66501674  0.53015024  0.01977001    -0.20100
C542        C  0.64791345  0.49168648  0.00411653    -0.12400
C543        C  0.67034092  0.45543644  0.99259175     0.13300
C544        C  0.71024256  0.45970734  0.99372548    -0.22800
C545        C  0.72196694  0.57552997  0.03919150    -0.05900
H546        H  0.64776827  0.55777772  0.02905505     0.14800
C547        C  0.65297510  0.41144469  0.98055300    -0.16100
H548        H  0.72776235  0.43227412  0.98422852     0.09100
H549        H  0.85827996  0.57988724  0.95077544     0.07000
H550        H  0.87250229  0.53066471  0.91989518     0.08200
H551        H  0.89904844  0.55505558  0.95582421     0.07200
H552        H  0.73144877  0.43680330  0.06101314     0.02100
H553        H  0.72568810  0.48890612  0.08967388     0.02600
H554        H  0.76010838  0.45474472  0.09642047     0.06100
H555        H  0.69975241  0.59977189  0.04929157     0.05100
H556        H  0.74777945  0.58839752  0.01608745    -0.00700
H557        H  0.73204364  0.57038627  0.06547181     0.00800
H558        H  0.66764662  0.40113453  0.94854038     0.04400
H559        H  0.62029722  0.40944725  0.98505256     0.06400
H560        H  0.65839617  0.38860132  0.99936501     0.07300
C561        C  0.21632141  0.44736252  0.97046521    -0.22400
C562        C  0.23092082  0.48296773  0.99230609     0.09600
C563        C  0.20510993  0.51437269  0.01354297     0.10000
C564        C  0.16541904  0.51010225  0.01151140    -0.17300
C565        C  0.15078150  0.47501436  0.98887310    -0.27700
C566        C  0.17636914  0.44247291  0.96904835     0.18300
C567        C  0.27309898  0.48649495  0.99351607     0.12300
C568        C  0.21952270  0.55241078  0.03833928    -0.12100
H569        H  0.14594690  0.53488531  0.02694431     0.12600
C570        C  0.16250378  0.40140354  0.94761244    -0.22900
H571        H  0.23609071  0.42282245  0.95501687     0.08200
C572        C  0.28490274  0.46600171  0.02104094     0.04600
C573        C  0.32446613  0.47301251  0.02340627    -0.20100
C574        C  0.35251367  0.50013367  0.99897360    -0.12400
C575        C  0.34067341  0.52048524  0.97112861     0.13300
C576        C  0.30113458  0.51296457  0.96851957    -0.22800
C577        C  0.25550409  0.43758084  0.04854060    -0.05900
H578        H  0.33350937  0.45760817  0.04484623     0.14800
C579        C  0.36781197  0.55223347  0.94552907    -0.16100
H580        H  0.29169860  0.52903923  0.94777270     0.09100
H581        H  0.17017549  0.37396477  0.95966053     0.07000
H582        H  0.17780102  0.39982510  0.91499611     0.08200
H583        H  0.12985159  0.39736882  0.95178595     0.07200
H584        H  0.24424252  0.57118721  0.01883134     0.02100
H585        H  0.23035408  0.54151940  0.06194935     0.02600
H586        H  0.19541232  0.57376212  0.05333924     0.06100
H587        H  0.26952662  0.42456023  0.06868348     0.05100
H588        H  0.24353087  0.41033337  0.03045805    -0.00700
H589        H  0.23049528  0.45595774  0.06756554     0.00800
H590        H  0.37057810  0.54110518  0.91336056     0.04400
H591        H  0.39808843  0.55761592  0.95002687     0.06400
H592        H  0.35466585  0.58347633  0.95286619     0.07300
C593        C  0.98813134  0.53051385  0.80053230    -0.22400
C594        C  0.99138744  0.49386061  0.77274452     0.09600
C595        C  0.99564738  0.45448785  0.78454257     0.10000
C596        C  0.99757623  0.45284837  0.82389054    -0.17300
C597        C  0.99502599  0.48967403  0.85187538    -0.27700
C598        C  0.98970774  0.52904444  0.84003621     0.18300
C599        C  0.99168156  0.49790143  0.73099725     0.12300
C600        C  0.99809043  0.41428890  0.75558295    -0.12100
H601        H  0.00129910  0.42260092  0.83276990     0.12600
C602        C  0.98721466  0.57002943  0.86805105    -0.22900
H603        H  0.98490343  0.56058105  0.79096274     0.08200
C604        C  0.95616310  0.50054936  0.72044149     0.04600
C605        C  0.95819525  0.50511806  0.68054161    -0.20100
C606        C  0.99494745  0.50721156  0.65108322    -0.12400
C607        C  0.03065056  0.50576368  0.66202968     0.13300
C608        C  0.02843899  0.50053303  0.70181808    -0.22800
C609        C  0.91620245  0.49792262  0.75114329    -0.05900
H610        H  0.93087639  0.50626602  0.67210055     0.14800
C611        C  0.07153683  0.51153718  0.63328343    -0.16100
H612        H  0.05568123  0.49934953  0.71039490     0.09100
H613        H  0.96011144  0.56782874  0.89367585     0.07000
H614        H  0.98526554  0.59778614  0.85283040     0.08200
H615        H  0.01420969  0.57641843  0.87931378     0.07200
H616        H  0.02448275  0.41763193  0.72937068     0.02100
H617        H  0.97069039  0.40828513  0.74497984     0.02600
H618        H  0.00088415  0.38609422  0.76978727     0.06100
H619        H  0.89136973  0.49996697  0.73772439     0.05100
H620        H  0.91514844  0.52459507  0.77559800    -0.00700
H621        H  0.91138680  0.46714767  0.76406873     0.00800
H622        H  0.08939107  0.53807125  0.64624184     0.04400
H623        H  0.07087751  0.51981268  0.60377592     0.06400
H624        H  0.08688582  0.48184722  0.62851500     0.07300
C625        C  0.99706260  0.46064791  0.20481890    -0.22400
C626        C  0.00209664  0.49870433  0.22919464     0.09600
C627        C  0.00663785  0.53804388  0.21356278     0.10000
C628        C  0.00576389  0.53838823  0.17368985    -0.17300
C629        C  0.00095780  0.50027498  0.14891791    -0.27700
C630        C  0.99582640  0.46078182  0.16502824     0.18300
C631        C  0.00404121  0.49631315  0.27055730     0.12300
C632        C  0.01308685  0.57952317  0.23871815    -0.12100
H633        H  0.00935940  0.56863400  0.16159814     0.12600
C634        C  0.98709367  0.41826781  0.14237673    -0.22900
H635        H  0.99343425  0.43055566  0.21721564     0.08200
C636        C  0.96993012  0.49888358  0.30367635     0.04600
C637        C  0.97366623  0.49628802  0.34223507    -0.20100
C638        C  0.01047025  0.48981088  0.34814020    -0.12400
C639        C  0.04451717  0.48667211  0.31465674     0.13300
C640        C  0.04082784  0.49028216  0.27633054    -0.22800
C641        C  0.92957667  0.50354680  0.29821774    -0.05900
H642        H  0.94758012  0.49849009  0.36780952     0.14800
C643        C  0.08505453  0.48074624  0.31907542    -0.16100
H644        H  0.06675276  0.48821450  0.25056597     0.09100
H645        H  0.95911004  0.40221016  0.16005016     0.07000
H646        H  0.01185861  0.39780660  0.13821494     0.08200
H647        H  0.98270377  0.42056056  0.11265550     0.07200
H648        H  0.04073476  0.57962350  0.24828055     0.02100
H649        H  0.98745708  0.58353323  0.26578025     0.02600
H650        H  0.01617118  0.60735251  0.22179438     0.06100
H651        H  0.90603925  0.50468377  0.32724182     0.05100
H652        H  0.92134957  0.47597562  0.27789588    -0.00700
H653        H  0.93020189  0.53338631  0.28493981     0.00800
H654        H  0.08472125  0.44930864  0.32953611     0.04400
H655        H  0.09344064  0.50660235  0.34090077     0.06400
H656        H  0.10849902  0.48164192  0.29009140     0.07300
C657        C  0.96246544  0.70887461  0.51462006    -0.22400
C658        C  0.00196193  0.72413204  0.49776496     0.09600
C659        C  0.03231538  0.69571124  0.48647265     0.10000
C660        C  0.02234342  0.65242435  0.49196212    -0.17300
C661        C  0.98281493  0.63710360  0.50909568    -0.27700
C662        C  0.95237609  0.66568853  0.52025409     0.18300
C663        C  0.01085383  0.77018870  0.49288731     0.12300
C664        C  0.07514612  0.71111215  0.46864452    -0.12100
H665        H  0.04557406  0.63049223  0.48334849     0.12600
C666        C  0.90884240  0.65177953  0.53685713    -0.22900
H667        H  0.93925176  0.73083389  0.52314486     0.08200
C668        C  0.00540703  0.78716693  0.45981047     0.04600
C669        C  0.01410170  0.83109398  0.45678721    -0.20100
C670        C  0.02786350  0.85863598  0.48626053    -0.12400
C671        C  0.03382296  0.84112780  0.51921286     0.13300
C672        C  0.02472666  0.79730191  0.52220121    -0.22800
C673        C  0.99035823  0.75889252  0.42780549    -0.05900
H674        H  0.00944529  0.84413324  0.43156683     0.14800
C675        C  0.05112878  0.86667754  0.55110125    -0.16100
H676        H  0.02908469  0.78395031  0.54741767     0.09100
H677        H  0.89151254  0.66058186  0.51744564     0.07000
H678        H  0.89773085  0.66825448  0.56764745     0.08200
H679        H  0.90285163  0.61695611  0.53814466     0.07200
H680        H  0.08540934  0.73575002  0.49030549     0.02100
H681        H  0.07788661  0.72508438  0.44051568     0.02600
H682        H  0.09511129  0.68475374  0.46141392     0.06100
H683        H  0.98784742  0.77719719  0.40392194     0.05100
H684        H  0.96038002  0.74347746  0.44136305    -0.00700
H685        H  0.01119153  0.73385575  0.41362115     0.00800
H686        H  0.02842133  0.86740165  0.58065187     0.04400
H687        H  0.06177490  0.89967561  0.54490829     0.06400
H688        H  0.07734643  0.85145790  0.55306951     0.07300
C689        C  0.97548849  0.19665150  0.47887187    -0.22400
C690        C  0.99799732  0.22229193  0.50207312     0.09600
C691        C  0.01128587  0.20406570  0.53005257     0.10000
C692        C  0.00155560  0.16051623  0.53434915    -0.17300
C693        C  0.97908117  0.13459725  0.51108117    -0.27700
C694        C  0.96543940  0.15313894  0.48321787     0.18300
C695        C  0.00633261  0.26844593  0.49733822     0.12300
C696        C  0.03617147  0.23048861  0.55495121    -0.12100
H697        H  0.01205666  0.14644109  0.55562556     0.12600
C698        C  0.93881177  0.12896219  0.45883983    -0.22900
H699        H  0.96497177  0.21096829  0.45774345     0.08200
C700        C  0.03789865  0.28354013  0.46614519     0.04600
C701        C  0.04451673  0.32752456  0.46290958    -0.20100
C702        C  0.02015360  0.35702313  0.49004285    -0.12400
C703        C  0.98799568  0.34148119  0.52104088     0.13300
C704        C  0.98172306  0.29743769  0.52428793    -0.22800
C705        C  0.06469653  0.25317388  0.43643987    -0.05900
H706        H  0.06921485  0.33895281  0.43918589     0.14800
C707        C  0.95907280  0.37050449  0.54985676    -0.16100
H708        H  0.95723522  0.28536113  0.54785886     0.09100
H709        H  0.95477606  0.12737399  0.42637988     0.07000
H710        H  0.91150596  0.14593817  0.46429868     0.08200
H711        H  0.92869288  0.09616843  0.46653553     0.07200
H712        H  0.01919335  0.25682033  0.57397605     0.02100
H713        H  0.06401558  0.24416316  0.53490068     0.02600
H714        H  0.04455146  0.21118349  0.57499724     0.06100
H715        H  0.08821139  0.27019027  0.41408355     0.05100
H716        H  0.04682050  0.23022926  0.41992903    -0.00700
H717        H  0.07951770  0.23532858  0.45253066     0.00800
H718        H  0.93467161  0.35237031  0.57040288     0.04400
H719        H  0.94518311  0.38812086  0.53276001     0.06400
H720        H  0.97458126  0.39321232  0.56884978     0.07300
C721        C  0.77921500  0.98151093  0.53195084    -0.22400
C722        C  0.77271580  0.99562286  0.49835968     0.09600
C723        C  0.80534504  0.01101129  0.46826160     0.10000
C724        C  0.84399396  0.01277283  0.47293099    -0.17300
C725        C  0.85062387  0.99921851  0.50691387    -0.27700
C726        C  0.81779991  0.98213915  0.53627784     0.18300
C727        C  0.73135746  0.99339608  0.49525313     0.12300
C728        C  0.79929143  0.02557700  0.43135920    -0.12100
H729        H  0.86907282  0.02549788  0.45031075     0.12600
C730        C  0.82207549  0.96245582  0.57156262    -0.22900
H731        H  0.75397528  0.96896096  0.55453925     0.08200
C732        C  0.71320024  0.95568454  0.47916599     0.04600
C733        C  0.67382628  0.95511535  0.47690710    -0.20100
C734        C  0.65212448  0.99124212  0.49089349    -0.12400
C735        C  0.67052999  0.02913935  0.50698370     0.13300
C736        C  0.70987387  0.02949788  0.50923806    -0.22800
C737        C  0.73543078  0.91617310  0.46444053    -0.05900
H738        H  0.65975372  0.92622365  0.46444332     0.14800
C739        C  0.65056275  0.07028752  0.52051449    -0.16100
H740        H  0.72416515  0.05838842  0.52147272     0.09100
H741        H  0.80683464  0.92975885  0.57174192     0.07000
H742        H  0.80786365  0.98188742  0.59997438     0.08200
H743        H  0.85338130  0.95911233  0.57064253     0.07200
H744        H  0.77990083  0.05248186  0.44021180     0.02100
H745        H  0.78492015  0.99884839  0.41480199     0.02600
H746        H  0.82800987  0.03650992  0.41069215     0.06100
H747        H  0.71686450  0.88945040  0.45269164     0.05100
H748        H  0.74428082  0.90571278  0.48949355    -0.00700
H749        H  0.76260111  0.92302423  0.43991127     0.00800
H750        H  0.64723009  0.07917368  0.55315085     0.04400
H751        H  0.62084498  0.06878654  0.51500333     0.06400
H752        H  0.66938375  0.09604037  0.50390908     0.07300
C753        C  0.20066051  0.99431157  0.53301007    -0.22400
C754        C  0.23188237  0.00622958  0.50044455     0.09600
C755        C  0.22366412  0.01447521  0.46519302     0.10000
C756        C  0.18417292  0.00947840  0.46280385    -0.17300
C757        C  0.15248060  0.99691485  0.49509314    -0.27700
C758        C  0.16090560  0.98990237  0.53107689     0.18300
C759        C  0.27320303  0.00935269  0.50359940     0.12300
C760        C  0.25660746  0.02892814  0.43027923    -0.12100
H761        H  0.17805007  0.01572452  0.43549222     0.12600
C762        C  0.12879244  0.97667685  0.56718817    -0.22900
H763        H  0.20758436  0.98826713  0.56000002     0.08200
C764        C  0.28931340  0.04575883  0.52360633     0.04600
C765        C  0.32873901  0.04715726  0.52572424    -0.20100
C766        C  0.35233974  0.01307828  0.50807214    -0.12400
C767        C  0.33605434  0.97647242  0.48801670     0.13300
C768        C  0.29662558  0.97528548  0.48590108    -0.22800
C769        C  0.26502354  0.08316966  0.54230412    -0.05900
H770        H  0.34130923  0.07507668  0.54111715     0.14800
C771        C  0.35838759  0.93742318  0.47000922    -0.16100
H772        H  0.28381233  0.94732215  0.47075807     0.09100
H773        H  0.10802161  0.00210245  0.57951626     0.07000
H774        H  0.14135859  0.97100674  0.59169102     0.08200
H775        H  0.11228396  0.94660023  0.55857333     0.07200
H776        H  0.27823506  0.00422235  0.41872922     0.02100
H777        H  0.27233536  0.05914881  0.44017382     0.02600
H778        H  0.24495167  0.03465340  0.40518061     0.06100
H779        H  0.28242392  0.10931743  0.55630399     0.05100
H780        H  0.23835299  0.07294697  0.56597703    -0.00700
H781        H  0.25527613  0.09595819  0.51893294     0.00800
H782        H  0.34111637  0.90907690  0.48356325     0.04400
H783        H  0.38828046  0.93928811  0.47518036     0.06400
H784        H  0.36191422  0.93235757  0.43710686     0.07300
C785        C  0.02738958  0.79362888  0.02118948    -0.22400
C786        C  0.00625444  0.76741174  0.99699579     0.09600
C787        C  0.99292182  0.78518291  0.96880829     0.10000
C788        C  0.00138663  0.82891133  0.96516656    -0.17300
C789        C  0.02236059  0.85541859  0.98947140    -0.27700
C790        C  0.03598117  0.83741780  0.01763305     0.18300
C791        C  0.99805063  0.72145075  0.00201228     0.12300
C792        C  0.96946486  0.75806087  0.94287541    -0.12100
H793        H  0.99104449  0.84267464  0.94359720     0.12600
C794        C  0.06096462  0.86259890  0.04321214    -0.22900
H795        H  0.03772590  0.77965459  0.04264974     0.08200
C796        C  0.02487422  0.69131682  0.97992608     0.04600
C797        C  0.01569675  0.64809743  0.98588224    -0.20100
C798        C  0.98058738  0.63446047  0.01391493    -0.12400
C799        C  0.95359774  0.66488597  0.03582647     0.13300
C800        C  0.96274906  0.70799099  0.02950307    -0.22800
C801        C  0.06318838  0.70487033  0.95025455    -0.05900
H802        H  0.03629982  0.62489766  0.96895122     0.14800
C803        C  0.91446953  0.65214614  0.06485726    -0.16100
H804        H  0.94224863  0.73144728  0.04604813     0.09100
H805        H  0.08940305  0.84761335  0.03751703     0.07000
H806        H  0.04465922  0.86233904  0.07545103     0.08200
H807        H  0.06892327  0.89612859  0.03692917     0.07200
H808        H  0.94152573  0.74365345  0.96216207     0.02100
H809        H  0.98739130  0.73224451  0.92419731     0.02600
H810        H  0.96129069  0.77703768  0.92244355     0.06100
H811        H  0.08080896  0.67730520  0.93551482     0.05100
H812        H  0.08173421  0.72791515  0.96593665    -0.00700
H813        H  0.05656596  0.72025556  0.92651019     0.00800
H814        H  0.91990446  0.63968379  0.09078765     0.04400
H815        H  0.89706031  0.62737875  0.04940991     0.06400
H816        H  0.89603442  0.67964117  0.07696558     0.07300
C817        C  0.98564112  0.28283730  0.96796371    -0.22400
C818        C  0.99799684  0.26678302  0.99742322     0.09600
C819        C  0.01730780  0.29462244  0.02261424     0.10000
C820        C  0.02447069  0.33804677  0.01727442    -0.17300
C821        C  0.01271452  0.35427854  0.98732563    -0.27700
C822        C  0.99194942  0.32639961  0.96307015     0.18300
C823        C  0.98989982  0.22070258  0.00172431     0.12300
C824        C  0.03064479  0.27838125  0.05483068    -0.12100
H825        H  0.04011587  0.35929800  0.03605582     0.12600
C826        C  0.97434397  0.34134455  0.93310380    -0.22900
H827        H  0.97013517  0.26130171  0.94923488     0.08200
C828        C  0.95398953  0.20444157  0.02713240     0.04600
C829        C  0.94796282  0.16060869  0.03086456    -0.20100
C830        C  0.97684385  0.13258032  0.00939035    -0.12400
C831        C  0.01277057  0.14904440  0.98361572     0.13300
C832        C  0.01879840  0.19298816  0.98016533    -0.22800
C833        C  0.92213613  0.23341255  0.05029342    -0.05900
H834        H  0.92038505  0.14805908  0.05045119     0.14800
C835        C  0.04554253  0.12097515  0.96099208    -0.16100
H836        H  0.04633958  0.20596337  0.96083637     0.09100
H837        H  0.94222088  0.32997581  0.93941275     0.07000
H838        H  0.98988053  0.32789504  0.90225110     0.08200
H839        H  0.97585730  0.37647033  0.93441356     0.07200
H840        H  0.05220007  0.25395772  0.04101064     0.02100
H841        H  0.00452913  0.26386863  0.07647883     0.02600
H842        H  0.04539569  0.30439633  0.07180057     0.06100
H843        H  0.89582157  0.21551980  0.06870471     0.05100
H844        H  0.91197711  0.24944380  0.02911200    -0.00700
H845        H  0.93417719  0.25797613  0.07076904     0.00800
H846        H  0.03499368  0.09701578  0.93904016     0.04400
H847        H  0.05498200  0.10469046  0.98248531     0.06400
H848        H  0.07216823  0.13964719  0.94395202     0.07300
C849        C  0.70451818  0.02620361  0.01407826    -0.22400
C850        C  0.72557190  0.98978290  0.99991938     0.09600
C851        C  0.70670385  0.95230164  0.98426623     0.10000
C852        C  0.66734065  0.95245888  0.98210158    -0.17300
C853        C  0.64625029  0.98907197  0.99579629    -0.27700
C854        C  0.66519568  0.02658742  0.01190687     0.18300
C855        C  0.76744425  0.99178458  0.00177490     0.12300
C856        C  0.72821988  0.91231515  0.96971700    -0.12100
H857        H  0.65286590  0.92380944  0.96971230     0.12600
C858        C  0.64596678  0.06818649  0.02532039    -0.22900
H859        H  0.71925694  0.05489917  0.02609776     0.08200
C860        C  0.79937117  0.00833445  0.97162575     0.04600
C861        C  0.83843508  0.01096340  0.97555738    -0.20100
C862        C  0.84612946  0.99779441  0.00921416    -0.12400
C863        C  0.81399033  0.97999828  0.03880521     0.13300
C864        C  0.77509532  0.97736864  0.03466437    -0.22800
C865        C  0.79208773  0.02322456  0.93542958    -0.05900
H866        H  0.86293657  0.02421434  0.95272129     0.14800
C867        C  0.82040098  0.96244057  0.07423786    -0.16100
H868        H  0.75035557  0.96421121  0.05734463     0.09100
H869        H  0.66533858  0.09368637  0.00879030     0.07000
H870        H  0.64253244  0.07696142  0.05798566     0.08200
H871        H  0.61640474  0.06741576  0.01962639     0.07200
H872        H  0.73685713  0.90171441  0.99483280     0.02100
H873        H  0.75546607  0.91863420  0.94509972     0.02600
H874        H  0.70922573  0.88590058  0.95815505     0.06100
H875        H  0.82031730  0.03482691  0.91445357     0.05100
H876        H  0.77224668  0.04973430  0.94510109    -0.00700
H877        H  0.77769559  0.99646004  0.91892262     0.00800
H878        H  0.83069216  0.98855043  0.09460479     0.04400
H879        H  0.84279989  0.93842702  0.06355446     0.06400
H880        H  0.79245147  0.94657242  0.09217639     0.07300
C881        C  0.21411412  0.96253011  0.98016686    -0.22400
C882        C  0.22816504  0.00160262  0.99751272     0.09600
C883        C  0.20206323  0.03410806  0.01376025     0.10000
C884        C  0.16251183  0.02715301  0.01128129    -0.17300
C885        C  0.14862973  0.98838603  0.99304219    -0.27700
C886        C  0.17443935  0.95518205  0.97829324     0.18300
C887        C  0.26972207  0.00683401  0.00049489     0.12300
C888        C  0.21597203  0.07595139  0.03378903    -0.12100
H889        H  0.14256168  0.05237486  0.02285664     0.12600
C890        C  0.16087650  0.91117259  0.96193551    -0.22900
H891        H  0.23407011  0.93727792  0.96877943     0.08200
C892        C  0.27976782  0.99100614  0.03172040     0.04600
C893        C  0.31921446  0.99734455  0.03418429    -0.20100
C894        C  0.34906630  0.01893670  0.00603833    -0.12400
C895        C  0.33890608  0.03496843  0.97461547     0.13300
C896        C  0.29926509  0.02833214  0.97215917    -0.22800
C897        C  0.24878643  0.96756143  0.06254511    -0.05900
H898        H  0.32693454  0.98482801  0.05808523     0.14800
C899        C  0.36816371  0.06062598  0.94426347    -0.16100
H900        H  0.29114891  0.04065862  0.94838269     0.09100
H901        H  0.16692840  0.88720684  0.97926844     0.07000
H902        H  0.17763154  0.90434830  0.92991980     0.08200
H903        H  0.12852818  0.90695594  0.96421104     0.07200
H904        H  0.24080524  0.09205122  0.01196706     0.02100
H905        H  0.22652121  0.07022651  0.05959956     0.02600
H906        H  0.19165549  0.09773164  0.04521630     0.06100
H907        H  0.26162347  0.95781118  0.08528203     0.05100
H908        H  0.23602146  0.93833703  0.04754720    -0.00700
H909        H  0.22454067  0.98842416  0.07846305     0.00800
H910        H  0.37197116  0.04313616  0.91370183     0.04400
H911        H  0.39781974  0.06779887  0.95004791     0.06400
H912        H  0.35639153  0.09175154  0.94495172     0.07300
C913        C  0.96585857  0.98939919  0.79937171    -0.22400
C914        C  0.00261480  0.99101600  0.77006383     0.09600
C915        C  0.03800515  0.98798328  0.78068630     0.10000
C916        C  0.03583217  0.98321508  0.82053974    -0.17300
C917        C  0.99915269  0.98199194  0.85016874    -0.27700
C918        C  0.96353408  0.98454125  0.83934227     0.18300
C919        C  0.00331539  0.99490798  0.72815359     0.12300
C920        C  0.07804519  0.99026218  0.75005186    -0.12100
H921        H  0.06311034  0.98144702  0.82885808     0.12600
C922        C  0.92261513  0.98056042  0.86837750    -0.22900
H923        H  0.93872638  0.99123498  0.79080907     0.08200
C924        C  0.00003335  0.95851201  0.70065881     0.04600
C925        C  0.00046850  0.96368239  0.66131102    -0.20100
C926        C  0.00366016  0.00443768  0.64895776    -0.12400
C927        C  0.00850766  0.04092484  0.67624709     0.13300
C928        C  0.00778686  0.03560462  0.71568145    -0.22800
C929        C  0.99540094  0.91429346  0.71309398    -0.05900
H930        H  0.99693065  0.93572716  0.64044112     0.14800
C931        C  0.01594280  0.08571513  0.66470427    -0.16100
H932        H  0.01114714  0.06340518  0.73679291     0.09100
H933        H  0.90399261  0.95429066  0.85610594     0.07000
H934        H  0.90820799  0.01076409  0.87235999     0.08200
H935        H  0.92301287  0.97301216  0.89821548     0.07200
H936        H  0.08340911  0.02128975  0.73751006     0.02100
H937        H  0.07881053  0.96399546  0.72528798     0.02600
H938        H  0.10272764  0.98740955  0.76343234     0.06100
H939        H  0.99311784  0.88933985  0.68791723     0.05100
H940        H  0.96791889  0.91055299  0.73809573    -0.00700
H941        H  0.02154971  0.90895525  0.72323588     0.00800
H942        H  0.99081189  0.10464772  0.68242971     0.04400
H943        H  0.01971250  0.08707721  0.63234079     0.06400
H944        H  0.04388718  0.10090677  0.67144212     0.07300
C945        C  0.99019035  0.96414432  0.20642950    -0.22400
C946        C  0.99998765  0.00158867  0.22931734     0.09600
C947        C  0.00893601  0.04040271  0.21221992     0.10000
C948        C  0.00691483  0.04102931  0.17269829    -0.17300
C949        C  0.99703413  0.00353468  0.14966968    -0.27700
C950        C  0.98837459  0.96451532  0.16686988     0.18300
C951        C  0.00127860  0.99897399  0.27094331     0.12300
C952        C  0.02099710  0.08094289  0.23554006    -0.12100
H953        H  0.01359903  0.07082084  0.15948785     0.12600
C954        C  0.97562753  0.92291342  0.14534802    -0.22900
H955        H  0.98340334  0.93441825  0.21977844     0.08200
C956        C  0.96734201  0.00431502  0.30391838     0.04600
C957        C  0.96987195  0.00022509  0.34266528    -0.20100
C958        C  0.00536289  0.98995192  0.34908569    -0.12400
C959        C  0.03945891  0.98481448  0.31570766     0.13300
C960        C  0.03686849  0.98947419  0.27715163    -0.22800
C961        C  0.92839736  0.01380975  0.29806984    -0.05900
H962        H  0.94377861  0.00438245  0.36798944     0.14800
C963        C  0.07908628  0.97570818  0.32034055    -0.16100
H964        H  0.06273183  0.98549740  0.25152748     0.09100
H965        H  0.94633626  0.90999600  0.16353797     0.07000
H966        H  0.99794277  0.89956064  0.14167124     0.08200
H967        H  0.97203379  0.92584079  0.11540019     0.07200
H968        H  0.04835166  0.07689627  0.24423307     0.02100
H969        H  0.99668547  0.08867274  0.26307494     0.02600
H970        H  0.02736559  0.10836201  0.21757345     0.06100
H971        H  0.90478267  0.01705982  0.32697581     0.05100
H972        H  0.91807087  0.98752052  0.27782943    -0.00700
H973        H  0.93237684  0.04408566  0.28449163     0.00800
H974        H  0.07669318  0.94387090  0.33074650     0.04400
H975        H  0.08866587  0.00065945  0.34220157     0.06400
H976        H  0.10277899  0.97547270  0.29145010     0.07300
loop_ 
_geom_bond_atom_site_label_1 
_geom_bond_atom_site_label_2 
_geom_bond_distance 
_geom_bond_site_symmetry_2 
_ccdc_geom_bond_type 
O1           Ni7   1.932       .  S
O1           C22   1.271       .  A
O2          Ni25   1.906   1_545  S
O2           C11   1.267   1_645  A
O3           Ni7   1.915   1_565  S
O3          Ni25   1.908   1_554  S
O3          Ni19   1.910   1_655  S
O3           H26   0.966       .  S
C4           O21   1.274   1_556  A
C4           O13   1.275       .  A
C4          C885   1.472       .  S
O5          Ni24   1.928       .  S
O5           C11   1.271       .  A
O6          Ni24   1.905       .  S
O6            C8   1.268       .  A
Ni7          O10   1.921       .  S
Ni7          O12   1.910       .  S
C8           O18   1.271   1_556  A
C8          C789   1.477       .  S
O9          Ni25   1.922       .  S
O9           C15   1.277   1_566  A
O10          C15   1.275       .  A
C11         C917   1.476   1_455  S
O12          C14   1.269       .  A
O13         Ni24   1.923       .  S
C14          O20   1.270   1_554  A
C14         C830   1.482       .  S
C15         C862   1.484   1_545  S
H16          O17   0.965   1_545  S
O17         Ni25   1.914   1_455  S
O17         Ni19   1.906   1_556  S
O17         Ni24   1.913       .  S
O18         Ni19   1.927       .  S
Ni19         O23   1.902       .  S
Ni19         O21   1.913       .  S
O20         Ni25   1.927   1_545  S
C22          O23   1.266   1_645  A
C22         C949   1.476       .  S
O27         Ni33   1.938       .  S
O27          C48   1.272       .  A
O28         Ni51   1.913       .  S
O28          C37   1.269   1_645  A
O29         Ni33   1.916   1_565  S
O29         Ni51   1.911   1_565  S
O29         Ni45   1.904   1_655  S
O29          H52   0.966       .  S
C30          O47   1.271       .  A
C30          O39   1.276       .  A
C30         C757   1.486       .  S
O31         Ni50   1.928       .  S
O31          C37   1.270       .  A
O32         Ni50   1.914       .  S
O32          C34   1.270       .  A
Ni33         O36   1.926       .  S
Ni33         O38   1.908       .  S
C34          O44   1.270       .  A
C34         C670   1.488       .  S
O35         Ni51   1.909   1_565  S
O35          C41   1.274   1_565  A
O36          C41   1.276       .  A
C37         C958   1.488       .  S
O38          C40   1.269       .  A
O39         Ni50   1.923       .  S
C40          O46   1.271       .  A
C40         C693   1.482       .  S
C41         C725   1.477   1_545  S
H42          O43   0.966       .  S
O43         Ni51   1.911   1_455  S
O43         Ni45   1.907   1_545  S
O43         Ni50   1.917   1_545  S
O44         Ni45   1.924       .  S
Ni45         O49   1.900       .  S
Ni45         O47   1.909       .  S
O46         Ni51   1.929       .  S
C48          O49   1.265   1_645  A
C48         C926   1.479   1_655  S
O53         Ni59   1.922       .  S
O53          C74   1.269       .  A
O54         Ni77   1.898       .  S
O54          C63   1.265   1_655  A
O55         Ni59   1.913       .  S
O55         Ni77   1.902   1_554  S
O55         Ni71   1.912   1_655  S
O55          H78   0.966       .  S
C56          O73   1.275   1_556  A
C56          O65   1.276       .  A
C56         C565   1.483       .  S
O57         Ni76   1.937       .  S
O57          C63   1.273       .  A
O58         Ni76   1.906       .  S
O58          C60   1.269       .  A
Ni59         O62   1.918       .  S
Ni59         O64   1.906       .  S
C60          O70   1.271   1_556  A
C60         C821   1.480       .  S
O61         Ni77   1.918       .  S
O61          C67   1.275   1_556  A
O62          C67   1.275       .  A
C63         C597   1.486   1_455  S
O64          C66   1.267       .  A
O65         Ni76   1.929       .  S
C66          O72   1.271   1_554  A
C66         C798   1.483       .  S
C67         C533   1.479       .  S
H68          O69   0.966       .  S
O69         Ni77   1.914   1_455  S
O69         Ni71   1.912   1_556  S
O69         Ni76   1.918       .  S
O70         Ni71   1.925       .  S
Ni71         O75   1.911       .  S
Ni71         O73   1.912       .  S
O72         Ni77   1.925       .  S
C74          O75   1.268   1_655  A
C74         C629   1.480   1_655  S
O79         Ni85   1.928       .  S
O79         C100   1.271       .  A
O80        Ni103   1.900       .  S
O80          C89   1.266   1_655  A
O81         Ni85   1.916       .  S
O81        Ni103   1.905       .  S
O81         Ni97   1.909   1_655  S
O81         H104   0.962       .  S
C82          O99   1.273       .  A
C82          O91   1.275       .  A
C82         C501   1.476       .  S
O83        Ni102   1.931       .  S
O83          C89   1.271       .  A
O84        Ni102   1.910       .  S
O84          C86   1.270       .  A
Ni85         O88   1.919       .  S
Ni85         O90   1.911       .  S
C86          O96   1.272       .  A
C86         C702   1.493       .  S
O87        Ni103   1.915       .  S
O87          C93   1.274       .  A
O88          C93   1.275       .  A
C89         C638   1.479       .  S
O90          C92   1.269       .  A
O91        Ni102   1.924       .  S
C92          O98   1.271       .  A
C92         C661   1.478       .  S
C93         C469   1.476       .  S
H94          O95   0.966       .  S
O95        Ni103   1.912   1_455  S
O95         Ni97   1.909       .  S
O95        Ni102   1.917       .  S
O96         Ni97   1.933       .  S
Ni97        O101   1.902       .  S
Ni97         O99   1.913       .  S
O98        Ni103   1.927       .  S
C100        O101   1.266   1_655  A
C100        C606   1.474       .  S
O105       Ni111   1.932       .  S
O105        C126   1.271       .  A
O106       Ni129   1.901       .  S
O106        C115   1.265   1_545  A
O107       Ni111   1.914       .  S
O107       Ni129   1.906   1_554  S
O107       Ni123   1.909       .  S
O107        H130   0.966   1_545  S
C108        O125   1.274   1_556  A
C108        O117   1.276       .  A
C108        C853   1.477       .  S
O109       Ni128   1.930       .  S
O109        C115   1.271       .  A
O110       Ni128   1.910       .  S
O110        C112   1.269       .  A
Ni111       O114   1.921       .  S
Ni111       O116   1.909       .  S
C112        O122   1.271   1_556  A
C112        C341   1.482       .  S
O113       Ni129   1.915       .  S
O113        C119   1.274   1_556  A
O114        C119   1.276       .  A
C115        C414   1.473   1_565  S
O116        C118   1.269       .  A
O117       Ni128   1.927       .  S
C118        O124   1.271   1_554  A
C118        C373   1.487       .  S
C119        C894   1.478       .  S
H120        O121   0.966       .  S
O121       Ni129   1.912       .  S
O121       Ni123   1.909   1_556  S
O121       Ni128   1.916   1_545  S
O122       Ni123   1.929   1_565  S
Ni123       O127   1.906   1_545  S
Ni123       O125   1.912   1_545  S
O124       Ni129   1.928       .  S
C126        O127   1.267   1_545  A
C126        C437   1.481       .  S
O131       Ni137   1.921       .  S
O131        C152   1.269       .  A
O132       Ni155   1.904       .  S
O132        C141   1.267   1_545  A
O133       Ni137   1.913   1_565  S
O133       Ni155   1.904   1_565  S
O133       Ni149   1.909       .  S
O133        H156   0.966       .  S
C134        O151   1.273       .  A
C134        O143   1.276       .  A
C134        C734   1.474       .  S
O135       Ni154   1.933       .  S
O135        C141   1.272       .  A
O136       Ni154   1.910       .  S
O136        C138   1.268       .  A
Ni137       O140   1.916       .  S
Ni137       O142   1.910       .  S
C138        O148   1.270       .  A
C138        C277   1.481       .  S
O139       Ni155   1.911       .  S
O139        C145   1.274       .  A
O140        C145   1.274       .  A
C141        C446   1.479       .  S
O142        C144   1.269       .  A
O143       Ni154   1.927       .  S
C144        O150   1.271       .  A
C144        C309   1.480       .  S
C145        C766   1.469       .  S
H146        O147   0.966       .  S
O147       Ni155   1.910       .  S
O147       Ni149   1.912   1_545  S
O147       Ni154   1.918   1_545  S
O148       Ni149   1.924       .  S
Ni149       O153   1.908       .  S
Ni149       O151   1.908       .  S
O150       Ni155   1.926       .  S
C152        O153   1.266   1_545  A
C152        C405   1.479       .  S
O157       Ni163   1.933       .  S
O157        C178   1.272       .  A
O158       Ni181   1.903       .  S
O158        C167   1.268       .  A
O159       Ni163   1.918       .  S
O159       Ni181   1.906   1_554  S
O159       Ni175   1.903       .  S
O159        H182   0.966       .  S
C160        O177   1.267   1_556  A
C160        O169   1.272       .  A
C160        C542   1.476   1_556  S
O161       Ni180   1.921       .  S
O161        C167   1.271       .  A
O162       Ni180   1.903       .  S
O162        C164   1.269       .  A
Ni163       O166   1.921       .  S
Ni163       O168   1.912       .  S
C164        O174   1.276   1_556  A
C164        C382   1.480       .  S
O165       Ni181   1.917       .  S
O165        C171   1.274   1_556  A
O166        C171   1.274       .  A
C167        C213   1.474       .  S
O168        C170   1.270       .  A
O169       Ni180   1.930       .  S
C170        O176   1.272   1_554  A
C170        C350   1.487       .  S
C171        C574   1.477   1_554  S
H172        O173   0.964       .  S
O173       Ni181   1.922       .  S
O173       Ni175   1.910   1_556  S
O173       Ni180   1.919       .  S
O174       Ni175   1.942       .  S
Ni175       O179   1.898       .  S
Ni175       O177   1.901       .  S
O176       Ni181   1.931       .  S
C178        O179   1.264       .  A
C178        C245   1.483       .  S
O183       Ni189   1.926       .  S
O183        C204   1.270       .  A
O184       Ni207   1.898       .  S
O184        C193   1.265       .  A
O185       Ni189   1.916       .  S
O185       Ni207   1.901       .  S
O185       Ni201   1.911       .  S
O185        H208   0.966       .  S
C186        O203   1.275       .  A
C186        O195   1.276       .  A
C186        C478   1.477       .  S
O187       Ni206   1.932       .  S
O187        C193   1.272       .  A
O188       Ni206   1.907       .  S
O188        C190   1.269       .  A
Ni189       O192   1.920       .  S
Ni189       O194   1.912       .  S
C190        O200   1.272       .  A
C190        C318   1.479       .  S
O191       Ni207   1.918       .  S
O191        C197   1.276       .  A
O192        C197   1.276       .  A
C193        C254   1.479       .  S
O194        C196   1.269       .  A
O195       Ni206   1.929       .  S
C196        O202   1.268       .  A
C196        C286   1.482       .  S
C197        C510   1.482       .  S
H198        O199   0.965       .  S
O199       Ni207   1.910       .  S
O199       Ni201   1.904       .  S
O199       Ni206   1.913       .  S
O200       Ni201   1.929       .  S
Ni201       O205   1.904       .  S
Ni201       O203   1.911       .  S
O202       Ni207   1.920       .  S
C204        O205   1.267       .  A
C204        C222   1.478       .  S
C209        C210   1.402       .  A
C209        C214   1.404       .  A
C209        H219   1.084       .  S
C210        C215   1.478       .  S
C210        C211   1.409       .  A
C211        C212   1.399       .  A
C211        C216   1.507       .  S
C212        C213   1.404       .  A
C212        H217   1.084       .  S
C213        C214   1.416       .  A
C214        C218   1.507       .  S
C215        C220   1.409       .  A
C215        C224   1.400       .  A
C216        H232   1.110       .  S
C216        H233   1.110       .  S
C216        H234   1.111       .  S
C218        H229   1.110       .  S
C218        H230   1.108       .  S
C218        H231   1.106       .  S
C220        C221   1.402       .  A
C220        C225   1.506       .  S
C221        C222   1.405       .  A
C221        H226   1.084       .  S
C222        C223   1.419       .  A
C223        C224   1.401       .  A
C223        C227   1.508       .  S
C224        H228   1.085       .  S
C225        H235   1.111       .  S
C225        H236   1.110       .  S
C225        H237   1.110       .  S
C227        H238   1.110       .  S
C227        H239   1.106       .  S
C227        H240   1.111       .  S
C241        C242   1.401       .  A
C241        C246   1.405       .  A
C241        H251   1.084       .  S
C242        C247   1.479       .  S
C242        C243   1.408       .  A
C243        C244   1.402       .  A
C243        C248   1.507       .  S
C244        C245   1.406       .  A
C244        H249   1.084       .  S
C245        C246   1.419       .  A
C246        C250   1.509       .  S
C247        C252   1.410       .  A
C247        C256   1.400       .  A
C248        H264   1.110       .  S
C248        H265   1.110       .  S
C248        H266   1.111       .  S
C250        H261   1.109       .  S
C250        H262   1.111       .  S
C250        H263   1.110       .  S
C252        C253   1.402       .  A
C252        C257   1.506       .  S
C253        C254   1.404       .  A
C253        H258   1.084       .  S
C254        C255   1.418       .  A
C255        C256   1.404       .  A
C255        C259   1.508       .  S
C256        H260   1.084       .  S
C257        H267   1.111       .  S
C257        H268   1.110       .  S
C257        H269   1.110       .  S
C259        H270   1.111       .  S
C259        H271   1.110       .  S
C259        H272   1.110       .  S
C273        C274   1.401       .  A
C273        C278   1.404       .  A
C273        H283   1.085       .  S
C274        C279   1.481       .  S
C274        C275   1.409       .  A
C275        C276   1.403       .  A
C275        C280   1.507       .  S
C276        C277   1.406       .  A
C276        H281   1.084       .  S
C277        C278   1.419       .  A
C278        C282   1.509       .  S
C279        C284   1.410       .  A
C279        C288   1.400       .  A
C280        H296   1.110       .  S
C280        H297   1.110       .  S
C280        H298   1.111       .  S
C282        H293   1.111       .  S
C282        H294   1.110       .  S
C282        H295   1.106       .  S
C284        C285   1.405       .  A
C284        C289   1.506       .  S
C285        C286   1.405       .  A
C285        H290   1.084       .  S
C286        C287   1.417       .  A
C287        C288   1.404       .  A
C287        C291   1.507       .  S
C288        H292   1.084       .  S
C289        H299   1.111       .  S
C289        H300   1.110       .  S
C289        H301   1.110       .  S
C291        H302   1.109       .  S
C291        H303   1.110       .  S
C291        H304   1.111       .  S
C305        C306   1.401       .  A
C305        C310   1.404       .  A
C305        H315   1.085       .  S
C306        C311   1.484       .  S
C306        C307   1.412       .  A
C307        C308   1.405       .  A
C307        C312   1.507       .  S
C308        C309   1.404       .  A
C308        H313   1.084       .  S
C309        C310   1.419       .  A
C310        C314   1.509       .  S
C311        C316   1.412       .  A
C311        C320   1.401       .  A
C312        H328   1.110       .  S
C312        H329   1.110       .  S
C312        H330   1.111       .  S
C314        H325   1.111       .  S
C314        H326   1.110       .  S
C314        H327   1.106       .  S
C316        C317   1.404       .  A
C316        C321   1.507       .  S
C317        C318   1.405       .  A
C317        H322   1.084       .  S
C318        C319   1.419       .  A
C319        C320   1.403       .  A
C319        C323   1.509       .  S
C320        H324   1.085       .  S
C321        H331   1.111       .  S
C321        H332   1.109       .  S
C321        H333   1.110       .  S
C323        H334   1.110       .  S
C323        H335   1.106       .  S
C323        H336   1.111       .  S
C337        C338   1.401   1_556  A
C337        C342   1.405       .  A
C337        H347   1.084       .  S
C338        C343   1.484       .  S
C338        C339   1.411       .  A
C339        C340   1.405       .  A
C339        C344   1.506       .  S
C340        C341   1.406   1_554  A
C340        H345   1.084       .  S
C341        C342   1.418       .  A
C342        C346   1.508       .  S
C343        C348   1.410       .  A
C343        C352   1.401   1_554  A
C344        H360   1.110       .  S
C344        H361   1.110       .  S
C344        H362   1.111       .  S
C346        H357   1.111       .  S
C346        H358   1.110       .  S
C346        H359   1.107       .  S
C348        C349   1.406       .  A
C348        C353   1.506       .  S
C349        C350   1.407       .  A
C349        H354   1.084       .  S
C350        C351   1.418   1_554  A
C351        C352   1.405       .  A
C351        C355   1.506       .  S
C352        H356   1.084       .  S
C353        H363   1.111       .  S
C353        H364   1.110       .  S
C353        H365   1.110       .  S
C355        H366   1.109       .  S
C355        H367   1.110       .  S
C355        H368   1.111       .  S
C369        C370   1.401   1_556  A
C369        C374   1.407       .  A
C369        H379   1.084       .  S
C370        C375   1.483   1_554  S
C370        C371   1.409       .  A
C371        C372   1.403       .  A
C371        C376   1.507       .  S
C372        C373   1.407       .  A
C372        H377   1.084       .  S
C373        C374   1.419   1_554  A
C374        C378   1.507       .  S
C375        C380   1.410   1_556  A
C375        C384   1.401       .  A
C376        H392   1.110       .  S
C376        H393   1.110       .  S
C376        H394   1.111       .  S
C378        H389   1.111       .  S
C378        H390   1.109       .  S
C378        H391   1.110       .  S
C380        C381   1.403       .  A
C380        C385   1.506       .  S
C381        C382   1.406   1_554  A
C381        H386   1.084       .  S
C382        C383   1.418       .  A
C383        C384   1.404       .  A
C383        C387   1.509       .  S
C384        H388   1.085       .  S
C385        H395   1.111       .  S
C385        H396   1.110       .  S
C385        H397   1.110       .  S
C387        H398   1.110       .  S
C387        H399   1.107       .  S
C387        H400   1.111       .  S
C401        C402   1.400   1_565  A
C401        C406   1.404       .  A
C401        H411   1.085       .  S
C402        C407   1.477       .  S
C402        C403   1.408       .  A
C403        C404   1.401       .  A
C403        C408   1.507       .  S
C404        C405   1.405       .  A
C404        H409   1.084       .  S
C405        C406   1.421   1_545  A
C406        C410   1.510       .  S
C407        C412   1.411       .  A
C407        C416   1.398       .  A
C408        H424   1.110       .  S
C408        H425   1.110       .  S
C408        H426   1.111       .  S
C410        H421   1.111       .  S
C410        H422   1.111       .  S
C410        H423   1.105       .  S
C412        C413   1.405       .  A
C412        C417   1.506       .  S
C413        C414   1.404       .  A
C413        H418   1.084       .  S
C414        C415   1.417       .  A
C415        C416   1.400       .  A
C415        C419   1.509       .  S
C416        H420   1.085       .  S
C417        H427   1.111       .  S
C417        H428   1.110   1_545  S
C417        H429   1.110       .  S
C419        H430   1.110   1_545  S
C419        H431   1.107       .  S
C419        H432   1.111       .  S
C433        C434   1.400       .  A
C433        C438   1.405       .  A
C433        H443   1.084       .  S
C434        C439   1.480       .  S
C434        C435   1.410   1_545  A
C435        C436   1.403       .  A
C435        C440   1.507       .  S
C436        C437   1.405   1_565  A
C436        H441   1.084       .  S
C437        C438   1.417       .  A
C438        C442   1.507       .  S
C439        C444   1.409   1_545  A
C439        C448   1.402       .  A
C440        H456   1.110       .  S
C440        H457   1.110       .  S
C440        H458   1.111       .  S
C442        H453   1.111       .  S
C442        H454   1.109       .  S
C442        H455   1.111       .  S
C444        C445   1.401       .  A
C444        C449   1.507   1_565  S
C445        C446   1.405       .  A
C445        H450   1.084       .  S
C446        C447   1.419   1_565  A
C447        C448   1.406       .  A
C447        C451   1.508   1_545  S
C448        H452   1.084       .  S
C449        H459   1.111   1_545  S
C449        H460   1.110       .  S
C449        H461   1.110   1_545  S
C451        H462   1.110   1_565  S
C451        H463   1.105       .  S
C451        H464   1.111       .  S
C465        C466   1.402       .  A
C465        C470   1.405       .  A
C465        H475   1.084       .  S
C466        C471   1.480       .  S
C466        C467   1.409       .  A
C467        C468   1.400       .  A
C467        C472   1.507       .  S
C468        C469   1.405       .  A
C468        H473   1.084       .  S
C469        C470   1.418       .  A
C470        C474   1.509       .  S
C471        C476   1.410       .  A
C471        C480   1.400       .  A
C472        H488   1.110       .  S
C472        H489   1.110       .  S
C472        H490   1.111       .  S
C474        H485   1.111       .  S
C474        H486   1.110       .  S
C474        H487   1.106       .  S
C476        C477   1.403       .  A
C476        C481   1.506       .  S
C477        C478   1.404       .  A
C477        H482   1.084       .  S
C478        C479   1.419       .  A
C479        C480   1.403       .  A
C479        C483   1.509       .  S
C480        H484   1.085       .  S
C481        H491   1.111       .  S
C481        H492   1.110       .  S
C481        H493   1.110       .  S
C483        H494   1.110       .  S
C483        H495   1.106       .  S
C483        H496   1.111       .  S
C497        C498   1.400       .  A
C497        C502   1.402       .  A
C497        H507   1.085       .  S
C498        C503   1.479       .  S
C498        C499   1.411       .  A
C499        C500   1.404       .  A
C499        C504   1.506       .  S
C500        C501   1.404       .  A
C500        H505   1.084       .  S
C501        C502   1.418       .  A
C502        C506   1.509       .  S
C503        C508   1.408       .  A
C503        C512   1.400       .  A
C504        H520   1.110       .  S
C504        H521   1.110       .  S
C504        H522   1.111       .  S
C506        H517   1.111       .  S
C506        H518   1.110       .  S
C506        H519   1.107       .  S
C508        C509   1.403       .  A
C508        C513   1.507       .  S
C509        C510   1.408       .  A
C509        H514   1.084       .  S
C510        C511   1.420       .  A
C511        C512   1.404       .  A
C511        C515   1.510       .  S
C512        H516   1.085       .  S
C513        H523   1.111       .  S
C513        H524   1.110       .  S
C513        H525   1.110       .  S
C515        H526   1.110       .  S
C515        H527   1.105       .  S
C515        H528   1.111       .  S
C529        C530   1.401   1_556  A
C529        C534   1.404       .  A
C529        H539   1.085       .  S
C530        C535   1.478       .  S
C530        C531   1.408       .  A
C531        C532   1.400       .  A
C531        C536   1.507       .  S
C532        C533   1.406       .  A
C532        H537   1.084       .  S
C533        C534   1.419   1_554  A
C534        C538   1.509       .  S
C535        C540   1.410       .  A
C535        C544   1.399   1_554  A
C536        H552   1.110       .  S
C536        H553   1.111       .  S
C536        H554   1.111       .  S
C538        H549   1.111       .  S
C538        H550   1.110       .  S
C538        H551   1.105       .  S
C540        C541   1.403       .  A
C540        C545   1.506       .  S
C541        C542   1.405       .  A
C541        H546   1.084       .  S
C542        C543   1.418   1_554  A
C543        C544   1.400       .  A
C543        C547   1.509       .  S
C544        H548   1.085       .  S
C545        H555   1.111       .  S
C545        H556   1.110       .  S
C545        H557   1.110       .  S
C547        H558   1.110       .  S
C547        H559   1.107       .  S
C547        H560   1.111       .  S
C561        C562   1.400       .  A
C561        C566   1.405       .  A
C561        H571   1.085       .  S
C562        C567   1.482       .  S
C562        C563   1.410   1_556  A
C563        C564   1.403       .  A
C563        C568   1.507       .  S
C564        C565   1.405   1_554  A
C564        H569   1.084       .  S
C565        C566   1.421       .  A
C566        C570   1.509       .  S
C567        C572   1.409   1_556  A
C567        C576   1.402       .  A
C568        H584   1.110       .  S
C568        H585   1.110       .  S
C568        H586   1.111       .  S
C570        H581   1.111       .  S
C570        H582   1.110       .  S
C570        H583   1.107       .  S
C572        C573   1.402       .  A
C572        C577   1.506       .  S
C573        C574   1.405   1_554  A
C573        H578   1.084       .  S
C574        C575   1.417       .  A
C575        C576   1.405       .  A
C575        C579   1.508       .  S
C576        H580   1.084       .  S
C577        H587   1.111       .  S
C577        H588   1.110       .  S
C577        H589   1.110       .  S
C579        H590   1.109       .  S
C579        H591   1.106       .  S
C579        H592   1.110       .  S
C593        C594   1.399       .  A
C593        C598   1.404       .  A
C593        H603   1.084       .  S
C594        C599   1.479       .  S
C594        C595   1.409       .  A
C595        C596   1.403       .  A
C595        C600   1.507       .  S
C596        C597   1.408       .  A
C596        H601   1.084   1_655  S
C597        C598   1.420       .  A
C598        C602   1.509       .  S
C599        C604   1.409       .  A
C599        C608   1.401   1_655  A
C600        H616   1.110   1_655  S
C600        H617   1.110       .  S
C600        H618   1.111   1_655  S
C602        H613   1.109       .  S
C602        H614   1.111       .  S
C602        H615   1.110   1_655  S
C604        C605   1.402       .  A
C604        C609   1.506       .  S
C605        C606   1.405       .  A
C605        H610   1.084       .  S
C606        C607   1.415   1_655  A
C607        C608   1.402       .  A
C607        C611   1.508       .  S
C608        H612   1.085       .  S
C609        H619   1.111       .  S
C609        H620   1.110       .  S
C609        H621   1.110       .  S
C611        H622   1.111       .  S
C611        H623   1.106       .  S
C611        H624   1.110       .  S
C625        C626   1.400   1_655  A
C625        C630   1.403       .  A
C625        H635   1.085       .  S
C626        C631   1.478       .  S
C626        C627   1.409       .  A
C627        C628   1.403       .  A
C627        C632   1.507       .  S
C628        C629   1.407       .  A
C628        H633   1.084       .  S
C629        C630   1.420   1_455  A
C630        C634   1.509       .  S
C631        C636   1.411   1_455  A
C631        C640   1.399       .  A
C632        H648   1.110       .  S
C632        H649   1.109   1_455  S
C632        H650   1.111       .  S
C634        H645   1.111       .  S
C634        H646   1.110   1_655  S
C634        H647   1.105       .  S
C636        C637   1.404       .  A
C636        C641   1.506       .  S
C637        C638   1.405   1_655  A
C637        H642   1.084       .  S
C638        C639   1.417       .  A
C639        C640   1.402       .  A
C639        C643   1.508       .  S
C640        H644   1.084       .  S
C641        H651   1.111       .  S
C641        H652   1.110       .  S
C641        H653   1.109       .  S
C643        H654   1.109       .  S
C643        H655   1.110       .  S
C643        H656   1.111       .  S
C657        C658   1.401   1_655  A
C657        C662   1.404       .  A
C657        H667   1.085       .  S
C658        C663   1.484       .  S
C658        C659   1.412       .  A
C659        C660   1.405       .  A
C659        C664   1.506       .  S
C660        C661   1.404   1_455  A
C660        H665   1.084       .  S
C661        C662   1.418       .  A
C662        C666   1.508       .  S
C663        C668   1.410       .  A
C663        C672   1.399       .  A
C664        H680   1.110       .  S
C664        H681   1.110       .  S
C664        H682   1.111       .  S
C666        H677   1.111       .  S
C666        H678   1.110       .  S
C666        H679   1.107       .  S
C668        C669   1.406       .  A
C668        C673   1.506   1_455  S
C669        C670   1.407       .  A
C669        H674   1.084       .  S
C670        C671   1.422       .  A
C671        C672   1.404       .  A
C671        C675   1.508       .  S
C672        H676   1.085       .  S
C673        H683   1.111       .  S
C673        H684   1.110       .  S
C673        H685   1.110   1_655  S
C675        H686   1.110       .  S
C675        H687   1.101       .  S
C675        H688   1.111       .  S
C689        C690   1.401       .  A
C689        C694   1.405       .  A
C689        H699   1.085       .  S
C690        C695   1.485   1_655  S
C690        C691   1.410   1_655  A
C691        C692   1.405       .  A
C691        C696   1.506       .  S
C692        C693   1.406   1_455  A
C692        H697   1.084       .  S
C693        C694   1.420       .  A
C694        C698   1.509       .  S
C695        C700   1.409       .  A
C695        C704   1.400   1_455  A
C696        H712   1.110       .  S
C696        H713   1.110       .  S
C696        H714   1.111       .  S
C698        H709   1.110       .  S
C698        H710   1.111       .  S
C698        H711   1.106       .  S
C700        C701   1.405       .  A
C700        C705   1.506       .  S
C701        C702   1.409       .  A
C701        H706   1.084       .  S
C702        C703   1.421   1_455  A
C703        C704   1.407       .  A
C703        C707   1.507       .  S
C704        H708   1.084       .  S
C705        H715   1.111       .  S
C705        H716   1.110       .  S
C705        H717   1.110       .  S
C707        H718   1.111       .  S
C707        H719   1.109       .  S
C707        H720   1.109       .  S
C721        C722   1.398       .  A
C721        C726   1.400       .  A
C721        H731   1.085       .  S
C722        C727   1.477       .  S
C722        C723   1.410   1_565  A
C723        C724   1.403       .  A
C723        C728   1.506       .  S
C724        C725   1.405   1_545  A
C724        H729   1.084       .  S
C725        C726   1.420       .  A
C726        C730   1.509       .  S
C727        C732   1.409       .  A
C727        C736   1.400   1_565  A
C728        H744   1.110       .  S
C728        H745   1.110   1_545  S
C728        H746   1.111       .  S
C730        H741   1.111       .  S
C730        H742   1.110       .  S
C730        H743   1.106       .  S
C732        C733   1.402       .  A
C732        C737   1.506       .  S
C733        C734   1.404       .  A
C733        H738   1.084       .  S
C734        C735   1.418   1_565  A
C735        C736   1.402       .  A
C735        C739   1.509       .  S
C736        H740   1.085       .  S
C737        H747   1.111       .  S
C737        H748   1.110       .  S
C737        H749   1.110       .  S
C739        H750   1.110       .  S
C739        H751   1.106       .  S
C739        H752   1.111       .  S
C753        C754   1.399   1_565  A
C753        C758   1.404       .  A
C753        H763   1.084       .  S
C754        C759   1.474       .  S
C754        C755   1.406       .  A
C755        C756   1.399       .  A
C755        C760   1.507       .  S
C756        C757   1.408   1_545  A
C756        H761   1.084       .  S
C757        C758   1.421       .  A
C758        C762   1.508       .  S
C759        C764   1.408       .  A
C759        C768   1.400   1_545  A
C760        H776   1.110       .  S
C760        H777   1.111       .  S
C760        H778   1.111       .  S
C762        H773   1.110   1_565  S
C762        H774   1.111       .  S
C762        H775   1.106       .  S
C764        C765   1.400       .  A
C764        C769   1.506       .  S
C765        C766   1.404       .  A
C765        H770   1.084       .  S
C766        C767   1.416   1_545  A
C767        C768   1.401       .  A
C767        C771   1.509       .  S
C768        H772   1.085       .  S
C769        H779   1.111       .  S
C769        H780   1.110       .  S
C769        H781   1.110       .  S
C771        H782   1.111       .  S
C771        H783   1.106       .  S
C771        H784   1.110       .  S
C785        C786   1.401   1_554  A
C785        C790   1.404       .  A
C785        H795   1.085       .  S
C786        C791   1.481   1_456  S
C786        C787   1.410   1_455  A
C787        C788   1.403   1_655  A
C787        C792   1.506       .  S
C788        C789   1.404       .  A
C788        H793   1.084   1_455  S
C789        C790   1.419   1_556  A
C790        C794   1.509       .  S
C791        C796   1.410   1_654  A
C791        C800   1.399       .  A
C792        H808   1.110       .  S
C792        H809   1.110       .  S
C792        H810   1.111       .  S
C794        H805   1.111       .  S
C794        H806   1.110       .  S
C794        H807   1.106       .  S
C796        C797   1.405       .  A
C796        C801   1.506       .  S
C797        C798   1.406   1_456  A
C797        H802   1.084       .  S
C798        C799   1.419       .  A
C799        C800   1.404       .  A
C799        C803   1.508       .  S
C800        H804   1.084       .  S
C801        H811   1.111       .  S
C801        H812   1.110       .  S
C801        H813   1.110       .  S
C803        H814   1.109       .  S
C803        H815   1.111       .  S
C803        H816   1.111       .  S
C817        C818   1.400       .  A
C817        C822   1.403       .  A
C817        H827   1.085       .  S
C818        C823   1.479   1_556  S
C818        C819   1.410   1_656  A
C819        C820   1.403       .  A
C819        C824   1.507       .  S
C820        C821   1.406   1_554  A
C820        H825   1.084       .  S
C821        C822   1.419   1_455  A
C822        C826   1.509       .  S
C823        C828   1.409       .  A
C823        C832   1.400   1_654  A
C824        H840   1.110       .  S
C824        H841   1.110       .  S
C824        H842   1.111       .  S
C826        H837   1.111       .  S
C826        H838   1.110       .  S
C826        H839   1.106       .  S
C828        C829   1.403       .  A
C828        C833   1.507       .  S
C829        C830   1.405       .  A
C829        H834   1.084       .  S
C830        C831   1.417   1_654  A
C831        C832   1.405       .  A
C831        C835   1.506       .  S
C832        H836   1.084       .  S
C833        H843   1.111       .  S
C833        H844   1.110       .  S
C833        H845   1.110       .  S
C835        H846   1.109       .  S
C835        H847   1.110       .  S
C835        H848   1.111       .  S
C849        C850   1.401   1_544  A
C849        C854   1.403       .  A
C849        H859   1.085       .  S
C850        C855   1.481   1_556  S
C850        C851   1.410       .  A
C851        C852   1.404       .  A
C851        C856   1.506       .  S
C852        C853   1.405       .  A
C852        H857   1.084       .  S
C853        C854   1.418   1_566  A
C854        C858   1.509       .  S
C855        C860   1.411   1_564  A
C855        C864   1.398       .  A
C856        H872   1.110       .  S
C856        H873   1.110       .  S
C856        H874   1.111       .  S
C858        H869   1.111       .  S
C858        H870   1.110       .  S
C858        H871   1.106       .  S
C860        C861   1.406       .  A
C860        C865   1.506       .  S
C861        C862   1.405   1_546  A
C861        H866   1.084       .  S
C862        C863   1.420       .  A
C863        C864   1.403       .  A
C863        C867   1.509       .  S
C864        H868   1.084       .  S
C865        H875   1.111       .  S
C865        H876   1.110       .  S
C865        H877   1.110   1_545  S
C867        H878   1.109       .  S
C867        H879   1.111       .  S
C867        H880   1.111       .  S
C881        C882   1.400   1_565  A
C881        C886   1.401       .  A
C881        H891   1.085       .  S
C882        C887   1.478   1_556  S
C882        C883   1.411   1_556  A
C883        C884   1.403       .  A
C883        C888   1.506       .  S
C884        C885   1.403   1_544  A
C884        H889   1.084       .  S
C885        C886   1.416       .  A
C886        C890   1.509       .  S
C887        C892   1.407   1_545  A
C887        C896   1.402   1_554  A
C888        H904   1.110       .  S
C888        H905   1.110       .  S
C888        H906   1.111       .  S
C890        H901   1.111       .  S
C890        H902   1.110       .  S
C890        H903   1.107       .  S
C892        C893   1.399       .  A
C892        C897   1.507       .  S
C893        C894   1.405   1_565  A
C893        H898   1.084       .  S
C894        C895   1.419   1_554  A
C895        C896   1.406       .  A
C895        C899   1.509       .  S
C896        H900   1.085       .  S
C897        H907   1.111       .  S
C897        H908   1.110       .  S
C897        H909   1.110       .  S
C899        H910   1.111       .  S
C899        H911   1.106       .  S
C899        H912   1.111       .  S
C913        C914   1.402   1_655  A
C913        C918   1.405       .  A
C913        H923   1.084       .  S
C914        C919   1.479       .  S
C914        C915   1.409       .  A
C915        C916   1.401       .  A
C915        C920   1.507       .  S
C916        C917   1.405   1_455  A
C916        H921   1.084       .  S
C917        C918   1.417       .  A
C918        C922   1.508       .  S
C919        C924   1.409       .  A
C919        C928   1.401   1_565  A
C920        H936   1.110   1_565  S
C920        H937   1.110       .  S
C920        H938   1.111       .  S
C922        H933   1.111       .  S
C922        H934   1.110   1_565  S
C922        H935   1.106       .  S
C924        C925   1.403       .  A
C924        C929   1.507   1_455  S
C925        C926   1.405   1_565  A
C925        H930   1.084   1_455  S
C926        C927   1.418       .  A
C927        C928   1.404       .  A
C927        C931   1.508       .  S
C928        H932   1.085       .  S
C929        H939   1.111       .  S
C929        H940   1.110       .  S
C929        H941   1.110   1_655  S
C931        H942   1.110   1_455  S
C931        H943   1.107       .  S
C931        H944   1.111       .  S
C945        C946   1.400   1_565  A
C945        C950   1.402       .  A
C945        H955   1.085       .  S
C946        C951   1.481   1_645  S
C946        C947   1.411   1_655  A
C947        C948   1.405       .  A
C947        C952   1.506       .  S
C948        C949   1.404   1_455  A
C948        H953   1.084       .  S
C949        C950   1.418   1_545  A
C950        C954   1.509       .  S
C951        C956   1.410   1_465  A
C951        C960   1.398       .  A
C952        H968   1.110       .  S
C952        H969   1.109   1_455  S
C952        H970   1.111       .  S
C954        H965   1.111       .  S
C954        H966   1.110       .  S
C954        H967   1.106       .  S
C956        C957   1.406       .  A
C956        C961   1.506       .  S
C957        C958   1.407   1_645  A
C957        H962   1.084       .  S
C958        C959   1.421       .  A
C959        C960   1.404       .  A
C959        C963   1.508       .  S
C960        H964   1.084       .  S
C961        H971   1.111       .  S
C961        H972   1.110   1_545  S
C961        H973   1.110       .  S
C963        H974   1.109       .  S
C963        H975   1.110   1_565  S
C963        H976   1.111       .  S
