geometry optimzed in LAMMPS
_audit_creation_date              2020-11-30 
_audit_creation_method            'lammps2cif' 
_symmetry_space_group_name_H-M    'P1' 
_symmetry_Int_Tables_number       1 
_symmetry_cell_setting            triclinic 
loop_ 
_symmetry_equiv_pos_as_xyz 
  x,y,z 
_cell_length_a                    39.42267446 
_cell_length_b                    38.58600205297523 
_cell_length_c                    28.976455279156365 
_cell_angle_alpha                 89.68723567122335 
_cell_angle_beta                  90.70273551669062 
_cell_angle_gamma                 90.02191675612046 
loop_ 
_atom_site_label 
_atom_site_type_symbol 
_atom_site_fract_x 
_atom_site_fract_y 
_atom_site_fract_z 
_atom_site_charge 
O1          O  0.26428402  0.18512021  0.37207606    -0.80200
O2          O  0.26242854  0.18785314  0.63790370    -0.81700
O3          O  0.32005921  0.15075895  0.49691632    -0.78700
O4          O  0.20905980  0.14865629  0.49860865    -0.77100
O5          O  0.16798460  0.19032983  0.50007744    -0.78900
O6          O  0.36048008  0.19295376  0.50174116    -0.79800
O7          O  0.26560253  0.14836423  0.57921844    -0.81200
O8          O  0.26572330  0.14626610  0.43213970    -0.81500
Eu9        Eu  0.26427342  0.17777017  0.50472732     2.39200
O10         O  0.22998809  0.21180350  0.55279445    -0.89000
O11         O  0.29733385  0.21263140  0.45674447    -0.92600
C12         C  0.26514612  0.15363022  0.38871852     1.02100
C13         C  0.26422261  0.15621594  0.62229329     1.01900
C14         C  0.35103290  0.16135493  0.49648857     1.01900
C15         C  0.17789773  0.15874460  0.49701872     0.99700
H16         H  0.31186766  0.19846284  0.57304114     0.29500
O17         O  0.29712007  0.21287724  0.55439650    -1.01400
H18         H  0.21604770  0.19646603  0.43560528     0.29500
O19         O  0.23041220  0.21123764  0.45438937    -1.03900
O20         O  0.26117115  0.30936795  0.63474877    -0.81100
O21         O  0.26376701  0.30544739  0.36862725    -0.80700
O22         O  0.35895540  0.24813402  0.58059293    -0.79100
O23         O  0.16678401  0.24760501  0.57390033    -0.82400
O24         O  0.16711633  0.24766505  0.42871320    -0.80300
O25         O  0.35988993  0.24636851  0.43188937    -0.78900
O26         O  0.31751676  0.34481473  0.50415370    -0.80500
O27         O  0.20715700  0.34274508  0.49163146    -0.82400
O28         O  0.35827960  0.30295231  0.50676291    -0.79100
O29         O  0.16699693  0.30028664  0.49687182    -0.81800
O30         O  0.32126136  0.25017156  0.64004599    -0.77500
O31         O  0.32237360  0.24599698  0.37080684    -0.77600
O32         O  0.20468555  0.24613802  0.36904778    -0.77200
O33         O  0.20308060  0.25030985  0.63571790    -0.80700
O34         O  0.26090922  0.34762460  0.57404588    -0.80100
O35         O  0.26539325  0.34512349  0.42715674    -0.78500
Eu36       Eu  0.26263248  0.24818219  0.60261472     2.39800
Eu37       Eu  0.26374595  0.24588224  0.40476346     2.39600
Eu38       Eu  0.33018108  0.24747833  0.50558252     2.38400
Eu39       Eu  0.19705751  0.24574253  0.50210769     2.39900
Eu40       Eu  0.26280686  0.31574235  0.50161592     2.39800
O41         O  0.22984057  0.28037665  0.45325853    -0.92900
O42         O  0.29631834  0.28231628  0.55240833    -0.91800
C43         C  0.26066155  0.34076464  0.61760912     1.02300
C44         C  0.26498403  0.33706304  0.38407545     1.01000
C45         C  0.35199300  0.24903514  0.62391347     1.00400
C46         C  0.17263986  0.25016786  0.61739453     1.02400
C47         C  0.17407278  0.24746816  0.38554283     1.01300
C48         C  0.35296052  0.24565656  0.38828666     1.00200
C49         C  0.34858123  0.33465771  0.50579780     1.00200
C50         C  0.17628544  0.33187336  0.49124197     1.02800
H51         H  0.31182080  0.29583154  0.43655838     0.30200
O52         O  0.29712817  0.28125058  0.45471526    -1.05000
H53         H  0.21414628  0.29688151  0.56743620     0.32300
O54         O  0.22911459  0.28187855  0.55055058    -1.07600
N55         N  0.06524916  0.49564085  0.45537368    -0.36600
N56         N  0.51317870  0.44399166  0.46647690    -0.57200
N57         N  0.46391730  0.49640665  0.48059926    -0.36600
N58         N  0.51372999  0.04900362  0.45569885    -0.57200
C59         C  0.08322366  0.46690694  0.46638314     0.26900
C60         C  0.08243395  0.02506902  0.46424629     0.26900
C61         C  0.44903707  0.46828528  0.49911869     0.26900
C62         C  0.44539065  0.02655204  0.47674967     0.26900
C63         C  0.03871091  0.42386147  0.44982167     0.35600
C64         C  0.48514354  0.42427910  0.46396180     0.35600
C65         C  0.04041291  0.07018067  0.44246603     0.35600
C66         C  0.48646437  0.06922215  0.44771365     0.35600
C67         C  0.11386720  0.47618449  0.48683852    -0.21900
C68         C  0.11241868  0.01460697  0.48569838    -0.21900
C69         C  0.42479776  0.47828932  0.53070023    -0.21900
C70         C  0.41811667  0.01842307  0.50459837    -0.21900
C71         C  0.02664014  0.39158195  0.43669017    -0.23000
C72         C  0.49282290  0.39187819  0.44633365    -0.23000
C73         C  0.03110576  0.10328062  0.42848114    -0.23000
C74         C  0.49646020  0.10188223  0.43299456    -0.23000
C75         C  0.07281775  0.43262512  0.45734848    -0.18300
C76         C  0.07338463  0.05991069  0.45554026    -0.18300
C77         C  0.45361341  0.06013956  0.46154566    -0.18300
C78         C  0.45442364  0.43425939  0.48397123    -0.18300
H79         H  0.13369382  0.45914410  0.49963267     0.14600
H80         H  0.13232374  0.03082677  0.49988057     0.14600
H81         H  0.40834053  0.46166234  0.55065622     0.14600
H82         H  0.40009391  0.03609278  0.51965952     0.14600
H83         H  0.04135571  0.36947140  0.42577930     0.12900
H84         H  0.47587426  0.37011200  0.44139574     0.12900
H85         H  0.04760445  0.12522304  0.42240168     0.12900
H86         H  0.48044804  0.12407069  0.42565550     0.12900
H87         H  0.04280539  0.49652114  0.43599537     0.26100
H88         H  0.47970556  0.49663312  0.45198324     0.26100
O89         O  0.48607005  0.43990748  0.87223745    -0.80200
O90         O  0.48786594  0.44511063  0.13831965    -0.81700
O91         O  0.04029337  0.40418916  0.00560717    -0.78700
O92         O  0.43087748  0.40540063  0.00436436    -0.77100
O93         O  0.38970612  0.44693722  0.00686366    -0.78900
O94         O  0.08084326  0.44644900  0.00664921    -0.79800
O95         O  0.48570008  0.40530236  0.07996121    -0.81200
O96         O  0.48509658  0.40190969  0.93311817    -0.81500
Eu97       Eu  0.48531832  0.43432672  0.00513026     2.39200
O98         O  0.45254862  0.46930089  0.05362446    -0.89000
O99         O  0.01834286  0.46633125  0.95695553    -0.92600
C100        C  0.48626397  0.40863220  0.88956789     1.02100
C101        C  0.48690040  0.41335794  0.12302034     1.01900
C102        C  0.07131246  0.41459947  0.00592171     1.01900
C103        C  0.39980873  0.41529131  0.00502460     0.99700
H104        H  0.03421567  0.45296798  0.07310477     0.29500
O105        O  0.01927102  0.46753816  0.05477039    -1.01400
H106        H  0.43586000  0.45241442  0.93823064     0.29500
O107        O  0.45052069  0.46753303  0.95585586    -1.03900
O108        O  0.49060782  0.06375905  0.13400919    -0.81100
O109        O  0.48392224  0.05894143  0.86954189    -0.80700
O110        O  0.08211066  0.50353016  0.07756555    -0.79100
O111        O  0.39005206  0.50639480  0.07864803    -0.82400
O112        O  0.38702149  0.99999346  0.93505037    -0.80300
O113        O  0.08034973  0.00239287  0.92402068    -0.78900
O114        O  0.03910368  0.09749560  0.99492132    -0.80500
O115        O  0.42882732  0.09583568  0.99384990    -0.82400
O116        O  0.08024392  0.05586346  0.99650021    -0.79100
O117        O  0.38897432  0.05334239  0.00102974    -0.81800
O118        O  0.04635096  0.50284965  0.13900557    -0.77500
O119        O  0.04120679  0.00023681  0.86498142    -0.77600
O120        O  0.42290154  0.99851766  0.87334520    -0.77200
O121        O  0.42888765  0.50550921  0.13812503    -0.80700
O122        O  0.48544075  0.10166621  0.07323032    -0.80100
O123        O  0.48265907  0.09918063  0.92752915    -0.78500
Eu124      Eu  0.48720251  0.50494710  0.10146105     2.39800
Eu125      Eu  0.48321730  0.99894223  0.90532198     2.39600
Eu126      Eu  0.05150607  0.50192722  0.00492900     2.38400
Eu127      Eu  0.41819135  0.50296004  0.00426358     2.39900
Eu128      Eu  0.48483817  0.06916177  0.00154764     2.39800
O129        O  0.45067507  0.03297315  0.95613713    -0.92900
O130        O  0.02041287  0.03565401  0.04670009    -0.91800
C131        C  0.48814308  0.09503208  0.11671191     1.02300
C132        C  0.48347833  0.09072064  0.88466644     1.01000
C133        C  0.07658002  0.50365936  0.12112524     1.00400
C134        C  0.39785040  0.50678023  0.12196219     1.02400
C135        C  0.39272225  0.99965705  0.89137302     1.01300
C136        C  0.07225018  0.00200292  0.88091940     1.00200
C137        C  0.07022629  0.08749304  0.99422276     1.00200
C138        C  0.39796418  0.08494245  0.99453561     1.02800
H139        H  0.03125497  0.04917259  0.93130415     0.30200
O140        O  0.01713536  0.03446363  0.95006942    -1.05000
H141        H  0.43928413  0.05022406  0.07158786     0.32300
O142        O  0.45354005  0.03528778  0.05350137    -1.07600
N143        N  0.28741004  0.25000575  0.96767345    -0.36600
N144        N  0.23457634  0.19866598  0.96361530    -0.57200
N145        N  0.18424172  0.25141113  0.97420408    -0.36600
N146        N  0.23672272  0.30291100  0.98014279    -0.57200
C147        C  0.30478884  0.22069382  0.97741672     0.26900
C148        C  0.30605999  0.27660572  0.98422426     0.26900
C149        C  0.16666457  0.22258766  0.98509262     0.26900
C150        C  0.16789827  0.27830296  0.99341722     0.26900
C151        C  0.26119592  0.17903998  0.95160611     0.35600
C152        C  0.20659820  0.18003844  0.95369424     0.35600
C153        C  0.26393971  0.32276572  0.97111686     0.35600
C154        C  0.20942060  0.32362327  0.97511789     0.35600
C155        C  0.33485971  0.22877864  0.00036753    -0.21900
C156        C  0.33571250  0.26419116  0.00450886    -0.21900
C157        C  0.13892858  0.23121121  0.01173594    -0.21900
C158        C  0.13968293  0.26655827  0.01691199    -0.21900
C159        C  0.25018721  0.14795245  0.93291718    -0.23000
C160        C  0.21534537  0.14864759  0.93405599    -0.23000
C161        C  0.25393695  0.35619864  0.95964336    -0.23000
C162        C  0.21918467  0.35674380  0.96222104    -0.23000
C163        C  0.29482034  0.18712698  0.96388411    -0.18300
C164        C  0.29749246  0.31182851  0.97917114    -0.18300
C165        C  0.17640082  0.31330177  0.98654106    -0.18300
C166        C  0.17419762  0.18910446  0.96920448    -0.18300
H167        H  0.35424220  0.21107541  0.01279539     0.14600
H168        H  0.35583030  0.27906158  0.02068454     0.14600
H169        H  0.11997157  0.21391551  0.02568468     0.14600
H170        H  0.12138892  0.28192096  0.03539484     0.14600
H171        H  0.26564643  0.12653535  0.92151796     0.12900
H172        H  0.19849958  0.12782249  0.92383828     0.12900
H173        H  0.27002772  0.37807948  0.95154132     0.12900
H174        H  0.20308675  0.37908321  0.95634491     0.12900
H175        H  0.26582637  0.25209559  0.94672656     0.26100
H176        H  0.20377226  0.25313824  0.95038205     0.26100
C177        C  0.04377499  0.24589502  0.28369281     0.86500
C178        C  0.03770779  0.21627737  0.24951660    -0.59400
C179        C  0.50862479  0.22109828  0.22473700     0.09400
C180        C  0.48599084  0.25312937  0.23605107     0.20300
C181        C  0.03952349  0.27914269  0.25497185    -0.54500
C182        C  0.50857847  0.28634442  0.23073998     0.09500
C183        C  0.51100766  0.24814856  0.31311269    -0.54000
C184        C  0.48079129  0.24990207  0.28867607     0.10000
H185        H  0.05404616  0.19396149  0.24625098     0.14600
H186        H  0.46174113  0.25359688  0.21635641     0.00300
H187        H  0.05909827  0.29892747  0.25428080     0.14900
H188        H  0.51194190  0.24504308  0.35034323     0.14700
C189        C  0.20682919  0.49742916  0.22435197     0.86500
C190        C  0.21297080  0.46387415  0.25152276    -0.53800
C191        C  0.24263535  0.46274078  0.27665453     0.09400
C192        C  0.26345967  0.49714806  0.27301925     0.20300
C193        C  0.21329384  0.02856980  0.25270648    -0.54500
C194        C  0.24234701  0.02876071  0.27909023     0.09500
C195        C  0.23977643  0.50130836  0.19543938    -0.54000
C196        C  0.26956310  0.50115814  0.22088047     0.10000
H197        H  0.19540139  0.44226874  0.24975226     0.14600
H198        H  0.28733573  0.49779214  0.29343014     0.00300
H199        H  0.19494434  0.04953586  0.25331201     0.14900
H200        H  0.24001392  0.50260710  0.15810412     0.14700
C201        C  0.04487377  0.25412619  0.72317268     0.86500
C202        C  0.04011950  0.28585239  0.75383879    -0.53800
C203        C  0.51293549  0.28386533  0.78134451     0.09400
C204        C  0.48975992  0.25142842  0.77402761     0.20300
C205        C  0.04258317  0.22289436  0.75579101    -0.54500
C206        C  0.51214426  0.21819188  0.78172088     0.09500
C207        C  0.51150752  0.25127830  0.69610246    -0.54000
C208        C  0.48242431  0.25161632  0.72187321     0.10000
H209        H  0.05807858  0.30719992  0.75400627     0.14600
H210        H  0.46617190  0.25248372  0.79396243     0.00300
H211        H  0.06212055  0.20311939  0.75680174     0.14900
H212        H  0.51022632  0.25220015  0.65876923     0.14700
C213        C  0.20034967  0.49670077  0.78322537     0.86500
C214        C  0.20605819  0.02891801  0.74854939    -0.53800
C215        C  0.23693306  0.03061109  0.72778067     0.09400
C216        C  0.25790171  0.49662305  0.73816766     0.20300
C217        C  0.20518171  0.46529230  0.75125809    -0.54500
C218        C  0.23527888  0.46440408  0.72840993     0.09500
C219        C  0.23268900  0.49584558  0.81460369    -0.54000
C220        C  0.26287585  0.49588974  0.79092457     0.10000
H221        H  0.18705282  0.04913164  0.74481023     0.14600
H222        H  0.28218808  0.49686402  0.71914325     0.00300
H223        H  0.18757860  0.44386785  0.74881190     0.14900
H224        H  0.23177990  0.49565870  0.85202779     0.14700
C225        C  0.11010813  0.49072731  0.19530808    -0.21300
C226        C  0.10834695  0.50452334  0.15037369    -0.09400
C227        C  0.13876830  0.51714219  0.13094369     0.29500
C228        C  0.16982905  0.51432179  0.15436766    -0.21300
C229        C  0.17234333  0.49882540  0.19823156    -0.09400
C230        C  0.14151608  0.48835806  0.21926120     0.29500
F231        F  0.14313938  0.00625262  0.26094275    -0.19900
H232        H  0.08733813  0.48118675  0.21161464     0.17800
H233        H  0.19171584  0.52545263  0.13791622     0.17900
F234        F  0.13875627  0.53279464  0.08885356    -0.19900
C235        C  0.31816131  0.03002564  0.17684568    -0.21300
C236        C  0.30420395  0.50474729  0.19967218    -0.09400
C237        C  0.33295054  0.48610326  0.21601412     0.29500
C238        C  0.36437290  0.48830517  0.19296603    -0.21300
C239        C  0.36784829  0.50918761  0.15334004    -0.09400
C240        C  0.35024334  0.03154801  0.15635591     0.29500
F241        F  0.35917448  0.06058941  0.13280893    -0.19900
H242        H  0.30132675  0.05212625  0.17381681     0.17800
H243        H  0.38536310  0.47228446  0.20463418     0.17900
F244        F  0.33032341  0.46408108  0.25243969    -0.19900
C245        C  0.51152025  0.35212300  0.22233178    -0.21300
C246        C  0.49897027  0.31981091  0.20627119    -0.09400
C247        C  0.97997157  0.31629453  0.16621960     0.29500
C248        C  0.97454058  0.34727377  0.14137730    -0.21300
C249        C  0.48790954  0.38284982  0.15542983    -0.09400
C250        C  0.50638168  0.38310717  0.19719647     0.29500
F251        F  0.52134402  0.41271201  0.21229415    -0.19900
H252        H  0.52614169  0.35350165  0.25411349     0.17800
H253        H  0.95970975  0.34609609  0.10970440     0.17900
F254        F  0.96680575  0.28653294  0.14906652    -0.19900
C255        C  0.47912382  0.15924416  0.12937616    -0.21300
C256        C  0.48894662  0.12644118  0.14738559    -0.09400
C257        C  0.99568818  0.12289043  0.19245684     0.29500
C258        C  0.99928696  0.15313425  0.21897193    -0.21300
C259        C  0.49790133  0.18879006  0.19934667    -0.09400
C260        C  0.48354389  0.18993635  0.15484333     0.29500
F261        F  0.47575688  0.22075517  0.13469834    -0.19900
H262        H  0.46891401  0.16143084  0.09461757     0.17800
H263        H  0.00573987  0.15052058  0.25527286     0.17900
F264        F  0.00060220  0.09166742  0.21321218    -0.19900
C265        C  0.15334485  0.36613583  0.02454793    -0.21300
C266        C  0.14960355  0.33961166  0.99194247    -0.09400
C267        C  0.11978153  0.33752346  0.96511721     0.29500
C268        C  0.09382345  0.36133271  0.97138865    -0.21300
C269        C  0.09776799  0.38823500  0.00323892    -0.09400
C270        C  0.12775029  0.39071550  0.02976310     0.29500
F271        F  0.13204588  0.41654029  0.06094972    -0.19900
H272        H  0.17612852  0.36779854  0.04571063     0.17800
H273        H  0.07107861  0.35952025  0.95014736     0.17900
F274        F  0.11609601  0.31276603  0.93231848    -0.19900
C275        C  0.31999982  0.36362432  0.02033007    -0.21300
C276        C  0.32412419  0.33818428  0.98637142    -0.09400
C277        C  0.35376960  0.33765577  0.96002799     0.29500
C278        C  0.37878736  0.36241932  0.96752175    -0.21300
C279        C  0.37417014  0.38837803  0.00050486    -0.09400
C280        C  0.34467622  0.38897550  0.02696388     0.29500
F281        F  0.34007304  0.41360420  0.05958055    -0.19900
H282        H  0.29750959  0.36389782  0.04143555     0.17800
H283        H  0.40139164  0.36195880  0.94659951     0.17900
F284        F  0.35832052  0.31345658  0.92682910    -0.19900
C285        C  0.37598521  0.13665249  0.95319315    -0.21300
C286        C  0.37097278  0.11019754  0.98578227    -0.09400
C287        C  0.33973084  0.10745921  0.00831511     0.29500
C288        C  0.31449283  0.13197845  0.99982637    -0.21300
C289        C  0.31986162  0.15889616  0.96803437    -0.09400
C290        C  0.35044056  0.16065798  0.94389655     0.29500
F291        F  0.35583216  0.18622901  0.91245782    -0.19900
H292        H  0.39962260  0.13856811  0.93475713     0.17800
H293        H  0.29108355  0.13057701  0.01895567     0.17900
F294        F  0.33411405  0.08194838  0.03975582    -0.19900
C295        C  0.11672105  0.16599832  0.95131571    -0.21300
C296        C  0.14813436  0.16201356  0.97389436    -0.09400
C297        C  0.15362500  0.13377230  0.00379842     0.29500
C298        C  0.12797226  0.10960668  0.01060448    -0.21300
C299        C  0.09637707  0.11386468  0.98858035    -0.09400
C300        C  0.09080007  0.14223031  0.95886537     0.29500
F301        F  0.06070739  0.14638952  0.93618480    -0.19900
H302        H  0.11223275  0.18783974  0.92839107     0.17800
H303        H  0.13259069  0.08781542  0.03358122     0.17900
F304        F  0.18347511  0.13010429  0.02717838    -0.19900
C305        C  0.32266960  0.47304707  0.80324297    -0.21300
C306        C  0.29725014  0.49745129  0.81354946    -0.09400
C307        C  0.30290834  0.02226651  0.85204818     0.29500
C308        C  0.33465339  0.02322621  0.87455055    -0.21300
C309        C  0.36139029  0.00116762  0.86156550    -0.09400
C310        C  0.35489113  0.47441387  0.82515358     0.29500
F311        F  0.37778501  0.44895270  0.81712166    -0.19900
H312        H  0.31717636  0.45229395  0.77925220     0.17800
H313        H  0.33822681  0.04104285  0.90298876     0.17900
F314        F  0.27822866  0.04430209  0.86584731    -0.19900
C315        C  0.13017842  0.52601406  0.86694033    -0.21300
C316        C  0.10191454  0.00404694  0.84945803    -0.09400
C317        C  0.10591839  0.98167266  0.81192264     0.29500
C318        C  0.13738807  0.97943704  0.78948661    -0.21300
C319        C  0.16591434  0.49874437  0.80868267    -0.09400
C320        C  0.16090863  0.52405651  0.84295766     0.29500
F321        F  0.18592934  0.54692759  0.85367175    -0.19900
H322        H  0.12794337  0.54479428  0.89441091     0.17800
H323        H  0.13884624  0.96210726  0.76051393     0.17900
F324        F  0.07999301  0.96082903  0.79822575    -0.19900
C325        C  0.97456218  0.15504677  0.86572535    -0.21300
C326        C  0.48607939  0.12056511  0.85200647    -0.09400
C327        C  0.51199096  0.12193261  0.81954336     0.29500
C328        C  0.51930146  0.15302149  0.79635816    -0.21300
C329        C  0.50159428  0.18437626  0.80532375    -0.09400
C330        C  0.98196247  0.18638170  0.84306432     0.29500
F331        F  0.96865116  0.21596988  0.85998862    -0.19900
H332        H  0.95822389  0.15586315  0.89548076     0.17800
H333        H  0.53935558  0.15179441  0.77148654     0.17900
F334        F  0.53194800  0.09382531  0.81249338    -0.19900
C335        C  0.97652882  0.34626779  0.87240185    -0.21300
C336        C  0.48918440  0.37746414  0.85881357    -0.09400
C337        C  0.50246395  0.37958314  0.81401571     0.29500
C338        C  0.50955577  0.34924810  0.78905768    -0.21300
C339        C  0.50315817  0.31592860  0.80756488    -0.09400
C340        C  0.98258733  0.31626306  0.84651120     0.29500
F341        F  0.97294774  0.28528826  0.86413346    -0.19900
H342        H  0.96436646  0.34340982  0.90552159     0.17800
H343        H  0.52032647  0.35188701  0.75502574     0.17900
F344        F  0.50984469  0.41081881  0.79487005    -0.19900
C345        C  0.38769581  0.26868590  0.69383608    -0.21300
C346        C  0.38267908  0.24720200  0.65517457    -0.09400
C347        C  0.40988726  0.22599178  0.64175915     0.29500
C348        C  0.44153087  0.22759572  0.66378090    -0.21300
C349        C  0.44735575  0.24998885  0.70084714    -0.09400
C350        C  0.41970034  0.26991886  0.71677114     0.29500
F351        F  0.42396100  0.29182789  0.75285799    -0.19900
H352        H  0.36745741  0.28551277  0.70502753     0.17800
H353        H  0.46170884  0.21106937  0.65160525     0.17900
F354        F  0.40592347  0.20364558  0.60637641    -0.19900
C355        C  0.07938277  0.26217888  0.64881449    -0.21300
C356        C  0.07874593  0.25522890  0.69642464    -0.09400
C357        C  0.11057209  0.25011265  0.71911223     0.29500
C358        C  0.14114977  0.24881750  0.69412861    -0.21300
C359        C  0.14113553  0.25364470  0.64603669    -0.09400
C360        C  0.10963840  0.26155171  0.62415671     0.29500
F361        F  0.10763508  0.26921751  0.57838686    -0.19900
H362        H  0.05662019  0.26894819  0.62985134     0.17800
H363        H  0.16473454  0.24360296  0.71240809     0.17900
F364        F  0.11218848  0.24580251  0.76558810    -0.19900
C365        C  0.24536196  0.12709046  0.69595685    -0.21300
C366        C  0.26326356  0.12568940  0.65453192    -0.09400
C367        C  0.27655304  0.09320751  0.64095268     0.29500
C368        C  0.26909718  0.06269665  0.66562225    -0.21300
C369        C  0.24857600  0.06365192  0.70474934    -0.09400
C370        C  0.23834405  0.09665964  0.72102195     0.29500
F371        F  0.22133046  0.09975238  0.76122356    -0.19900
H372        H  0.23541879  0.15155579  0.70797063     0.17800
H373        H  0.27827273  0.03812884  0.65291505     0.17900
F374        F  0.29611738  0.09071614  0.60287198    -0.19900
C375        C  0.24616717  0.36904497  0.69386997    -0.21300
C376        C  0.25865883  0.37186069  0.64880501    -0.09400
C377        C  0.26689560  0.40554083  0.63232370     0.29500
C378        C  0.26066550  0.43524012  0.65893019    -0.21300
C379        C  0.24603871  0.43248249  0.70260028    -0.09400
C380        C  0.24004639  0.39880388  0.72048644     0.29500
F381        F  0.22817625  0.39453477  0.76392215    -0.19900
H382        H  0.24006355  0.34382520  0.70809726     0.17800
H383        H  0.26612358  0.46057675  0.64455078     0.17900
F384        F  0.28059702  0.41005525  0.58995845    -0.19900
C385        C  0.37160281  0.11004624  0.45419084    -0.21300
C386        C  0.37746942  0.13573784  0.48743391    -0.09400
C387        C  0.40914949  0.13756537  0.50992632     0.29500
C388        C  0.43410331  0.11329194  0.50059851    -0.21300
C389        C  0.42817996  0.08757899  0.46763011    -0.09400
C390        C  0.39692750  0.08619343  0.44402625     0.29500
F391        F  0.39088173  0.06147387  0.41180209    -0.19900
H392        H  0.34758412  0.10876229  0.43570892     0.17800
H393        H  0.45793815  0.11417441  0.51959181     0.17900
F394        F  0.41575958  0.16218287  0.54176106    -0.19900
C395        C  0.12151186  0.13291489  0.51296384    -0.21300
C396        C  0.15167042  0.13281952  0.48780646    -0.09400
C397        C  0.15524968  0.11007430  0.45052483     0.29500
C398        C  0.12902078  0.08743409  0.43888923    -0.21300
C399        C  0.09920883  0.08685489  0.46472461    -0.09400
C400        C  0.09552646  0.10972117  0.50192427     0.29500
F401        F  0.06718778  0.10898488  0.52807926    -0.19900
H402        H  0.11830774  0.15068732  0.54140389     0.17800
H403        H  0.13210828  0.06985210  0.41022288     0.17900
F404        F  0.18361930  0.11063432  0.42442342    -0.19900
C405        C  0.12614771  0.40333405  0.43494410    -0.21300
C406        C  0.09781399  0.40463888  0.46355930    -0.09400
C407        C  0.09501754  0.38143164  0.50086902     0.29500
C408        C  0.12071047  0.35750691  0.50975123    -0.21300
C409        C  0.14957547  0.35707536  0.48208374    -0.09400
C410        C  0.15202249  0.37968093  0.44417953     0.29500
F411        F  0.17907219  0.37832360  0.41567803    -0.19900
H412        H  0.12842909  0.42113716  0.40610770     0.17800
H413        H  0.11850126  0.33987453  0.53879941     0.17900
F414        F  0.06805665  0.38280325  0.52952517    -0.19900
C415        C  0.36841656  0.39233866  0.48127753    -0.21300
C416        C  0.37507506  0.36100124  0.50424119    -0.09400
C417        C  0.40783305  0.35410692  0.52185804     0.29500
C418        C  0.43360443  0.37820834  0.51571221    -0.21300
C419        C  0.42721738  0.40878457  0.49085497    -0.09400
C420        C  0.39438751  0.41588703  0.47399506     0.29500
F421        F  0.38761096  0.44543444  0.44993931    -0.19900
H422        H  0.34342983  0.39799396  0.46718476     0.17800
H423        H  0.45863722  0.37290998  0.52989543     0.17900
F424        F  0.41498135  0.32414340  0.54479201    -0.19900
C425        C  0.11710602  0.27190938  0.36606949    -0.21300
C426        C  0.14352849  0.24903701  0.35475743    -0.09400
C427        C  0.13740567  0.22445794  0.32022740     0.29500
C428        C  0.10556116  0.22286106  0.29776292    -0.21300
C429        C  0.07848575  0.24540069  0.30960045    -0.09400
C430        C  0.08527155  0.27025226  0.34401266     0.29500
F431        F  0.06093411  0.29305440  0.35666922    -0.19900
H432        H  0.12093833  0.29083602  0.39314137     0.17800
H433        H  0.10308182  0.20390579  0.27085085     0.17900
F434        F  0.16157690  0.20082282  0.30970503    -0.19900
C435        C  0.38729289  0.26602113  0.31955519    -0.21300
C436        C  0.38324468  0.24382967  0.35777556    -0.09400
C437        C  0.41072055  0.22240416  0.37091698     0.29500
C438        C  0.44174394  0.22420490  0.34792535    -0.21300
C439        C  0.44652466  0.24732555  0.31095620    -0.09400
C440        C  0.41859464  0.26785224  0.29636443     0.29500
F441        F  0.42201605  0.29116682  0.26150232    -0.19900
H442        H  0.36682244  0.28316382  0.30908024     0.17800
H443        H  0.46224489  0.20744416  0.35935535     0.17900
F444        F  0.40767393  0.19980130  0.40671627    -0.19900
C445        C  0.24320552  0.39708406  0.28318948    -0.21300
C446        C  0.25388903  0.42967858  0.30039232    -0.09400
C447        C  0.27339309  0.42988310  0.34134543     0.29500
C448        C  0.27871881  0.39916072  0.36648587    -0.21300
C449        C  0.26514877  0.36723596  0.35150533    -0.09400
C450        C  0.24859020  0.36630202  0.30837390     0.29500
F451        F  0.23563370  0.33616278  0.29184898    -0.19900
H452        H  0.22970953  0.39531290  0.25055344     0.17800
H453        H  0.29242468  0.40067244  0.39904941     0.17900
F454        F  0.28568389  0.45982763  0.35900843    -0.19900
C455        C  0.27510436  0.09010745  0.37361478    -0.21300
C456        C  0.26425156  0.12289108  0.35712188    -0.09400
C457        C  0.24960807  0.12457397  0.31271808     0.29500
C458        C  0.24400062  0.09414651  0.28722636    -0.21300
C459        C  0.25271694  0.06104681  0.30504377    -0.09400
C460        C  0.26970464  0.05971678  0.34794835     0.29500
F461        F  0.27958068  0.02903522  0.36651190    -0.19900
H462        H  0.28698995  0.08774036  0.40738231     0.17800
H463        H  0.23210092  0.09658318  0.25350563     0.17900
F464        F  0.23895582  0.15530871  0.29479039    -0.19900
O465        O  0.26520371  0.68503035  0.37323399    -0.80200
O466        O  0.25971861  0.68699390  0.63925986    -0.81700
O467        O  0.31951377  0.64991690  0.50547047    -0.78700
O468        O  0.20991641  0.64925583  0.49659913    -0.77100
O469        O  0.16894303  0.69103670  0.49608096    -0.78900
O470        O  0.36020886  0.69181858  0.51034795    -0.79800
O471        O  0.26140155  0.64916308  0.57897672    -0.81200
O472        O  0.26634802  0.64660590  0.43375382    -0.81500
Eu473      Eu  0.26455815  0.67864974  0.50534994     2.39200
O474        O  0.22950038  0.71223963  0.55241519    -0.89000
O475        O  0.29967200  0.71260437  0.45870642    -0.92600
C476        C  0.26532810  0.65361590  0.39033801     1.02100
C477        C  0.25996843  0.65563629  0.62230977     1.01900
C478        C  0.35057436  0.66005470  0.50736974     1.01900
C479        C  0.17885906  0.65939728  0.49377224     0.99700
H480        H  0.31069872  0.69825188  0.57587933     0.29500
O481        O  0.29667338  0.71297414  0.55665604    -1.01400
H482        H  0.21778186  0.69773730  0.43460918     0.29500
O483        O  0.23195329  0.71226294  0.45399001    -1.03900
O484        O  0.26028943  0.80914770  0.63617231    -0.81100
O485        O  0.26508075  0.80568238  0.36887911    -0.80700
O486        O  0.35908774  0.74769945  0.58492477    -0.79100
O487        O  0.16662766  0.74613008  0.57215303    -0.82400
O488        O  0.17008779  0.75110702  0.42678692    -0.80300
O489        O  0.36367577  0.74592154  0.43848408    -0.78900
O490        O  0.31691063  0.84557090  0.50430856    -0.80500
O491        O  0.20772905  0.84356202  0.49190591    -0.82400
O492        O  0.35826111  0.80434849  0.51103088    -0.79100
O493        O  0.16737329  0.80129432  0.49586141    -0.81800
O494        O  0.31946412  0.74956576  0.64225318    -0.77500
O495        O  0.32741350  0.74648476  0.37595976    -0.77600
O496        O  0.20873497  0.74948495  0.36838819    -0.77200
O497        O  0.20157818  0.74764056  0.63537863    -0.80700
O498        O  0.26115617  0.84710747  0.57522940    -0.80100
O499        O  0.26376110  0.84467714  0.42806365    -0.78500
Eu500      Eu  0.26135438  0.74779206  0.60396213     2.39800
Eu501      Eu  0.26703893  0.74617095  0.40572261     2.39600
Eu502      Eu  0.33117482  0.74757644  0.50954215     2.38400
Eu503      Eu  0.19771043  0.74653439  0.50104916     2.39900
Eu504      Eu  0.26305775  0.81560741  0.50285826     2.39800
O505        O  0.23196687  0.78014844  0.45336365    -0.92900
O506        O  0.29576505  0.78208248  0.55475770    -0.91800
C507        C  0.26051972  0.84050362  0.61878363     1.02300
C508        C  0.26402962  0.83718414  0.38481187     1.01000
C509        C  0.35060290  0.74878458  0.62763487     1.00400
C510        C  0.17156404  0.74679500  0.61595454     1.02400
C511        C  0.17794364  0.75192845  0.38397052     1.01300
C512        C  0.35771084  0.74580937  0.39467038     1.00200
C513        C  0.34800936  0.83590763  0.50750920     1.00200
C514        C  0.17676148  0.83295987  0.49090486     1.02800
H515        H  0.31377586  0.79620778  0.43967218     0.30200
O516        O  0.29895837  0.78144883  0.45738216    -1.05000
H517        H  0.21331931  0.79705323  0.56798235     0.32300
O518        O  0.22858724  0.78215766  0.55138745    -1.07600
N519        N  0.06416128  0.99694448  0.45162464    -0.36600
N520        N  0.51292242  0.94414887  0.46737485    -0.57200
N521        N  0.46197576  0.99741612  0.46493536    -0.36600
N522        N  0.51385100  0.54856197  0.46817357    -0.57200
C523        C  0.08211949  0.96881650  0.46538851     0.26900
C524        C  0.08403522  0.52312125  0.46898697     0.26900
C525        C  0.44538327  0.97080884  0.48491919     0.26900
C526        C  0.44894472  0.52425872  0.49930911     0.26900
C527        C  0.03824634  0.92426319  0.45154784     0.35600
C528        C  0.48504775  0.92404373  0.46542061     0.35600
C529        C  0.04109752  0.56825422  0.45420601     0.35600
C530        C  0.48598738  0.56862644  0.46626178     0.35600
C531        C  0.11230437  0.97908889  0.48613983    -0.21900
C532        C  0.11433313  0.51173625  0.48862398    -0.21900
C533        C  0.41814761  0.98310451  0.50981891    -0.21900
C534        C  0.42457989  0.51388978  0.53056165    -0.21900
C535        C  0.02712010  0.89077060  0.44317872    -0.23000
C536        C  0.49372603  0.89012420  0.45531874    -0.23000
C537        C  0.03021605  0.60105269  0.44093904    -0.23000
C538        C  0.49395708  0.60138189  0.44978622    -0.23000
C539        C  0.07220667  0.93406043  0.45908389    -0.18300
C540        C  0.07486237  0.55814840  0.46229953    -0.18300
C541        C  0.45495357  0.55851488  0.48531744    -0.18300
C542        C  0.45276700  0.93559068  0.47828982    -0.18300
H543        H  0.13197981  0.96271031  0.50081806     0.14600
H544        H  0.13461233  0.52734944  0.50304335     0.14600
H545        H  0.40005689  0.96813169  0.52943957     0.14600
H546        H  0.40803195  0.53027408  0.55046536     0.14600
H547        H  0.04247841  0.86796734  0.43754811     0.12900
H548        H  0.47703887  0.86792392  0.45270651     0.12900
H549        H  0.04577492  0.62280492  0.43061618     0.12900
H550        H  0.47718170  0.62342234  0.44582763     0.12900
H551        H  0.04224763  0.99679115  0.43120134     0.26100
H552        H  0.48102415  0.99551931  0.44044573     0.26100
O553        O  0.48633736  0.93832799  0.87358555    -0.80200
O554        O  0.49146498  0.94291025  0.14001093    -0.81700
O555        O  0.03949098  0.90199610  0.99551466    -0.78700
O556        O  0.43285925  0.90133105  0.00452714    -0.77100
O557        O  0.39153741  0.94261002  0.00825410    -0.78900
O558        O  0.08014431  0.94408013  0.99416991    -0.79800
O559        O  0.48824552  0.90313165  0.08167485    -0.81200
O560        O  0.48718685  0.89999391  0.93423609    -0.81500
Eu561      Eu  0.48692401  0.93156684  0.00639435     2.39200
O562        O  0.45494170  0.96615064  0.05609214    -0.89000
O563        O  0.01761832  0.96545132  0.95071112    -0.92600
C564        C  0.48750983  0.90707470  0.89081192     1.02100
C565        C  0.49008484  0.91122798  0.12471270     1.01900
C566        C  0.07043947  0.91225629  0.99351856     1.01900
C567        C  0.40170642  0.91106506  0.00530880     0.99700
H568        H  0.03603961  0.95080750  0.06613520     0.29500
O569        O  0.02087129  0.96563625  0.04851388    -1.01400
H570        H  0.43667078  0.94955123  0.93998274     0.29500
O571        O  0.45138196  0.96459922  0.95765432    -1.03900
O572        O  0.48867015  0.56572636  0.13366909    -0.81100
O573        O  0.48535019  0.56063374  0.86750294    -0.80700
O574        O  0.08434103  0.00005969  0.06900055    -0.79100
O575        O  0.39212520  0.00089490  0.08267661    -0.82400
O576        O  0.38696108  0.50143850  0.93108241    -0.80300
O577        O  0.08106439  0.50319771  0.93158013    -0.78900
O578        O  0.03913562  0.59990397  0.99782911    -0.80500
O579        O  0.42937640  0.60031455  0.98687163    -0.82400
O580        O  0.07967609  0.55775167  0.00022570    -0.79100
O581        O  0.38922049  0.55798974  0.99322824    -0.81800
O582        O  0.04977443  0.00085678  0.13149998    -0.77500
O583        O  0.04208528  0.50074863  0.87236542    -0.77600
O584        O  0.42372245  0.49919546  0.87036554    -0.77200
O585        O  0.43255811  0.00135460  0.14040904    -0.80700
O586        O  0.48554373  0.60424151  0.07326882    -0.80100
O587        O  0.48481404  0.60181276  0.92455068    -0.78500
Eu588      Eu  0.49026535  0.00225236  0.10282015     2.39800
Eu589      Eu  0.48346151  0.50084968  0.90392818     2.39600
Eu590      Eu  0.05196620  0.00019354  0.99769711     2.38400
Eu591      Eu  0.41926813  0.99897285  0.00749603     2.39900
Eu592      Eu  0.48476131  0.57271267  0.99968521     2.39800
O593        O  0.45104112  0.53612707  0.95370462    -0.92900
O594        O  0.01888023  0.53713668  0.05305110    -0.91800
C595        C  0.48739452  0.59714495  0.11688415     1.02300
C596        C  0.48578601  0.59260234  0.88191310     1.01000
C597        C  0.07977097  0.00006512  0.11276097     1.00400
C598        C  0.40120360  0.00141914  0.12551570     1.02400
C599        C  0.39331844  0.50015078  0.88762485     1.01300
C600        C  0.07311892  0.50249749  0.88837907     1.00200
C601        C  0.07012632  0.58948039  0.99625344     1.00200
C602        C  0.39848446  0.58940796  0.98558446     1.02800
H603        H  0.03135338  0.54987649  0.93727474     0.30200
O604        O  0.01704596  0.53564219  0.95638064    -1.05000
H605        H  0.43777543  0.55434552  0.06854315     0.32300
O606        O  0.45211707  0.53915271  0.05095152    -1.07600
N607        N  0.28704705  0.75041551  0.95208479    -0.36600
N608        N  0.23468199  0.69878520  0.94410002    -0.57200
N609        N  0.18458464  0.74977616  0.96336768    -0.36600
N610        N  0.23626359  0.80180173  0.97220624    -0.57200
C611        C  0.30479270  0.72074080  0.95764631     0.26900
C612        C  0.30548477  0.77579432  0.97227758     0.26900
C613        C  0.16859070  0.72026026  0.97532814     0.26900
C614        C  0.16873081  0.77573642  0.98526042     0.26900
C615        C  0.26106228  0.68019519  0.92883791     0.35600
C616        C  0.20663171  0.67968645  0.93632816     0.35600
C617        C  0.26330169  0.82239027  0.96533331     0.35600
C618        C  0.20872637  0.82224692  0.96790649     0.35600
C619        C  0.33481556  0.72742390  0.98158768    -0.21900
C620        C  0.33524557  0.76223698  0.99075870    -0.21900
C621        C  0.14279433  0.72755056  0.00605790    -0.21900
C622        C  0.14265287  0.76283905  0.01188539    -0.21900
C623        C  0.24971134  0.64935638  0.90971798    -0.23000
C624        C  0.21495456  0.64911682  0.91425052    -0.23000
C625        C  0.25304117  0.85612141  0.95635497    -0.23000
C626        C  0.21821644  0.85597872  0.95757474    -0.23000
C627        C  0.29489004  0.68799464  0.94067042    -0.18300
C628        C  0.29690647  0.81118902  0.97167587    -0.18300
C629        C  0.17580556  0.81091173  0.97822411    -0.18300
C630        C  0.17518042  0.68753198  0.95615601    -0.18300
H631        H  0.35440865  0.70917585  0.99168234     0.14600
H632        H  0.35520276  0.77598495  0.00897034     0.14600
H633        H  0.12547638  0.70944765  0.02200040     0.14600
H634        H  0.12530313  0.77739961  0.03298479     0.14600
H635        H  0.26503585  0.62844827  0.89649810     0.12900
H636        H  0.19809345  0.62803856  0.90506629     0.12900
H637        H  0.26896106  0.87848364  0.95017277     0.12900
H638        H  0.20192720  0.87827887  0.95258863     0.12900
H639        H  0.26524835  0.75377114  0.93183300     0.26100
H640        H  0.20232560  0.75275518  0.93723051     0.26100
C641        C  0.04795388  0.75167116  0.28437339     0.86500
C642        C  0.04166345  0.72013147  0.25354888    -0.59400
C643        C  0.51059578  0.72016943  0.23009161     0.09400
C644        C  0.48916763  0.75298180  0.24145851     0.20300
C645        C  0.04262869  0.78303358  0.25293436    -0.54500
C646        C  0.51224862  0.78527580  0.23310381     0.09500
C647        C  0.51677126  0.74964044  0.31715576    -0.54000
C648        C  0.48578306  0.75131666  0.29454719     0.10000
H649        H  0.05914877  0.69860240  0.25155011     0.14600
H650        H  0.46432451  0.75373463  0.22314743     0.00300
H651        H  0.06192029  0.80295801  0.24956696     0.14900
H652        H  0.51904260  0.74786069  0.35446371     0.14700
C653        C  0.20965686  0.99810821  0.21934364     0.86500
C654        C  0.21290984  0.96553968  0.24943343    -0.53800
C655        C  0.24183124  0.96344825  0.27579583     0.09400
C656        C  0.26494921  0.99614365  0.27094264     0.20300
C657        C  0.20925913  0.52631254  0.25991758    -0.54500
C658        C  0.23899670  0.52762066  0.28441836     0.09500
C659        C  0.24349682  0.99936180  0.19192181    -0.54000
C660        C  0.27233337  0.99802110  0.21901983     0.10000
H661        H  0.19405081  0.94501908  0.24848875     0.14600
H662        H  0.28856156  0.99535026  0.29211756     0.00300
H663        H  0.18962549  0.54589372  0.26296938     0.14900
H664        H  0.24523535  0.00204772  0.15482816     0.14700
C665        C  0.04374387  0.75023668  0.72104307     0.86500
C666        C  0.04036096  0.78213978  0.75181648    -0.53800
C667        C  0.51329101  0.78388861  0.78124684     0.09400
C668        C  0.48960485  0.75244451  0.77188552     0.20300
C669        C  0.04206445  0.71910720  0.75371016    -0.54500
C670        C  0.51194303  0.71892108  0.77547940     0.09500
C671        C  0.50926807  0.75663965  0.69269709    -0.54000
C672        C  0.48107811  0.75561954  0.72010148     0.10000
H673        H  0.05838418  0.80341238  0.75077647     0.14600
H674        H  0.46671740  0.75262077  0.79353080     0.00300
H675        H  0.06069009  0.69847509  0.75197933     0.14900
H676        H  0.50678330  0.75736832  0.65545852     0.14700
C677        C  0.20072181  0.99758992  0.78008693     0.86500
C678        C  0.20560717  0.52855649  0.75244408    -0.53800
C679        C  0.23568853  0.52949278  0.72975889     0.09400
C680        C  0.25935474  0.99802459  0.73790915     0.20300
C681        C  0.20669651  0.96592774  0.74936266    -0.54500
C682        C  0.23728151  0.96528600  0.72783419     0.09500
C683        C  0.23224147  0.99762560  0.81299345    -0.54000
C684        C  0.26305232  0.99801292  0.79093998     0.10000
H685        H  0.18748404  0.54974711  0.75058777     0.14600
H686        H  0.28409410  0.99824687  0.72002763     0.00300
H687        H  0.18933428  0.94426494  0.74677321     0.14900
H688        H  0.23029332  0.99719194  0.85031938     0.14700
C689        C  0.11297550  0.00318559  0.18937514    -0.21300
C690        C  0.11222374  0.99882588  0.14122162    -0.09400
C691        C  0.14379300  0.99330915  0.11922151     0.29500
C692        C  0.17448298  0.99338928  0.14397269    -0.21300
C693        C  0.17562921  0.99868483  0.19184306    -0.09400
C694        C  0.14404747  0.00271603  0.21440373     0.29500
F695        F  0.14157676  0.47576943  0.26308231    -0.19900
H696        H  0.08953939  0.00699064  0.20776784     0.17800
H697        H  0.19717699  0.98821883  0.12483641     0.17900
F698        F  0.14556114  0.98716657  0.07321531    -0.19900
C699        C  0.30850182  0.52694728  0.16169825    -0.21300
C700        C  0.30744845  0.00002128  0.20007109    -0.09400
C701        C  0.33016724  0.97194412  0.20413833     0.29500
C702        C  0.36222878  0.97329482  0.18303802    -0.21300
C703        C  0.37241018  0.00292146  0.15829710    -0.09400
C704        C  0.33964563  0.52928804  0.13915947     0.29500
F705        F  0.34200728  0.55097186  0.10245041    -0.19900
H706        H  0.28748271  0.54250099  0.14898141     0.17800
H707        H  0.37829629  0.95053162  0.18387035     0.17900
F708        F  0.32052586  0.94245252  0.22609578    -0.19900
C709        C  0.51433733  0.85082243  0.22483437    -0.21300
C710        C  0.50231453  0.81841715  0.20860459    -0.09400
C711        C  0.98190657  0.81637749  0.16399777     0.29500
C712        C  0.97641186  0.84666175  0.13770063    -0.21300
C713        C  0.49125672  0.88090101  0.15719028    -0.09400
C714        C  0.50904848  0.88163791  0.19949620     0.29500
F715        F  0.52312004  0.91155817  0.21503989    -0.19900
H716        H  0.52867434  0.85230625  0.25686662     0.17800
H717        H  0.96171888  0.84466430  0.10598867     0.17900
F718        F  0.96908428  0.78610663  0.14819199    -0.19900
C719        C  0.48152418  0.66151105  0.13124421    -0.21300
C720        C  0.48868043  0.62795868  0.14876994    -0.09400
C721        C  0.00581376  0.62382131  0.19559132     0.29500
C722        C  0.01078955  0.65399427  0.22189028    -0.21300
C723        C  0.49880900  0.68877338  0.20360318    -0.09400
C724        C  0.48624006  0.69136679  0.15823405     0.29500
F725        F  0.48056006  0.72279905  0.13873770    -0.19900
H726        H  0.47306591  0.66491372  0.09581898     0.17800
H727        H  0.02380962  0.65145395  0.25484345     0.17900
F728        F  0.01853127  0.59333498  0.21171510    -0.19900
C729        C  0.15158314  0.86355698  0.01453833    -0.21300
C730        C  0.14809617  0.83621500  0.98324487    -0.09400
C731        C  0.11825795  0.83316572  0.95645190     0.29500
C732        C  0.09253555  0.85769354  0.96054640    -0.21300
C733        C  0.09672352  0.88575941  0.99062268    -0.09400
C734        C  0.12633773  0.88854828  0.01766332     0.29500
F735        F  0.13055338  0.91514519  0.04763077    -0.19900
H736        H  0.17414394  0.86576366  0.03604145     0.17800
H737        H  0.06979498  0.85534497  0.93938647     0.17900
F738        F  0.11442384  0.80695909  0.92570384    -0.19900
C739        C  0.32066295  0.86070285  0.01678125    -0.21300
C740        C  0.32389649  0.83699253  0.98050516    -0.09400
C741        C  0.35339800  0.83712785  0.95377839     0.29500
C742        C  0.37940100  0.86038581  0.96368531    -0.21300
C743        C  0.37580612  0.88448854  0.99927724    -0.09400
C744        C  0.34626416  0.88473769  0.02571449     0.29500
F745        F  0.34241844  0.90794083  0.06031862    -0.19900
H746        H  0.29824459  0.86059376  0.03802824     0.17800
H747        H  0.40184712  0.86046114  0.94244559     0.17900
F748        F  0.35683075  0.81500441  0.91785425    -0.19900
C749        C  0.37639452  0.63742674  0.93607422    -0.21300
C750        C  0.37162106  0.61404267  0.97273330    -0.09400
C751        C  0.34012820  0.61268407  0.99470774     0.29500
C752        C  0.31431680  0.63532969  0.98160963    -0.21300
C753        C  0.31936209  0.65935035  0.94598885    -0.09400
C754        C  0.35024269  0.65978996  0.92236850     0.29500
F755        F  0.35543866  0.68288530  0.88765356    -0.19900
H756        H  0.40027615  0.63823890  0.91806658     0.17800
H757        H  0.29086971  0.63528571  0.00074912     0.17900
F758        F  0.33480521  0.59051734  0.03024416    -0.19900
C759        C  0.11596325  0.66649650  0.94636441    -0.21300
C760        C  0.14925371  0.66030404  0.96202546    -0.09400
C761        C  0.15625400  0.63103120  0.98943263     0.29500
C762        C  0.13021042  0.60836450  0.00102982    -0.21300
C763        C  0.09670372  0.61504929  0.98657658    -0.09400
C764        C  0.08969056  0.64450128  0.95927794     0.29500
F765        F  0.05764221  0.65191813  0.94467357    -0.19900
H766        H  0.11018066  0.68932204  0.92578097     0.17800
H767        H  0.13616483  0.58582846  0.02204370     0.17900
F768        F  0.18793613  0.62519075  0.00661730    -0.19900
C769        C  0.32375982  0.97756745  0.80164840    -0.21300
C770        C  0.29689601  0.99918038  0.81542146    -0.09400
C771        C  0.30523373  0.52419238  0.84450372     0.29500
C772        C  0.33725446  0.52568266  0.86602320    -0.21300
C773        C  0.36243447  0.50077897  0.85715890    -0.09400
C774        C  0.35552684  0.97819165  0.82474034     0.29500
F775        F  0.37965275  0.95489921  0.81298452    -0.19900
H776        H  0.31976362  0.95929539  0.77386449     0.17800
H777        H  0.34224522  0.54615454  0.89065496     0.17900
F778        F  0.28212562  0.54923669  0.85356546    -0.19900
C779        C  0.12929726  0.02570324  0.86176969    -0.21300
C780        C  0.10275516  0.50381839  0.85657303    -0.09400
C781        C  0.10644908  0.48037929  0.82014762     0.29500
C782        C  0.13746130  0.47788363  0.79664353    -0.21300
C783        C  0.16581095  0.99946836  0.80392416    -0.09400
C784        C  0.16038228  0.02404991  0.83892124     0.29500
F785        F  0.18534218  0.04642461  0.85160598    -0.19900
H786        H  0.12678692  0.04373983  0.89006676     0.17800
H787        H  0.13837682  0.45965533  0.76867183     0.17900
F788        F  0.08062965  0.45870640  0.80857021    -0.19900
C789        C  0.96615634  0.64193204  0.83871794    -0.21300
C790        C  0.49032435  0.62159675  0.84850388    -0.09400
C791        C  0.52295641  0.62943532  0.83303575     0.29500
C792        C  0.52962260  0.66105957  0.81089777    -0.21300
C793        C  0.50370600  0.68566524  0.80154811    -0.09400
C794        C  0.97240717  0.67342401  0.81544923     0.29500
F795        F  0.94543109  0.69205804  0.79989000    -0.19900
H796        H  0.94024749  0.63444593  0.84579624     0.17800
H797        H  0.55572863  0.66628460  0.80242481     0.17900
F798        F  0.54904592  0.60732851  0.84196550    -0.19900
C799        C  0.97984953  0.84326931  0.87261508    -0.21300
C800        C  0.49041154  0.87634746  0.85993844    -0.09400
C801        C  0.50505336  0.87878823  0.81611400     0.29500
C802        C  0.51154590  0.84875920  0.79066983    -0.21300
C803        C  0.50385655  0.81545096  0.80816770    -0.09400
C804        C  0.98656830  0.81286108  0.84792353     0.29500
F805        F  0.97928715  0.78177705  0.86758854    -0.19900
H806        H  0.96867762  0.84068495  0.90642865     0.17800
H807        H  0.52302171  0.85166749  0.75711874     0.17900
F808        F  0.51461948  0.90994437  0.79864159    -0.19900
C809        C  0.38979796  0.77839023  0.68457123    -0.21300
C810        C  0.37993494  0.74837088  0.66050294    -0.09400
C811        C  0.40290228  0.72047925  0.65882044     0.29500
C812        C  0.43537732  0.72305030  0.67869749    -0.21300
C813        C  0.44574780  0.75335664  0.70121688    -0.09400
C814        C  0.42237002  0.78080035  0.70516586     0.29500
F815        F  0.43164600  0.81055206  0.72668083    -0.19900
H816        H  0.37304587  0.80061859  0.68521780     0.17800
H817        H  0.45276459  0.70144824  0.67586463     0.17900
F818        F  0.39423789  0.69103553  0.63624411    -0.19900
C819        C  0.07730711  0.74446732  0.64571475    -0.21300
C820        C  0.07709271  0.75011676  0.69349165    -0.09400
C821        C  0.10903468  0.75382105  0.71624145     0.29500
C822        C  0.13969684  0.75246300  0.69165132    -0.21300
C823        C  0.13955928  0.74704280  0.64376360    -0.09400
C824        C  0.10759645  0.74279414  0.62136110     0.29500
F825        F  0.10502626  0.73654331  0.57536271    -0.19900
H826        H  0.05421867  0.74039432  0.62627216     0.17800
H827        H  0.16350126  0.75581826  0.71013548     0.17900
F828        F  0.11067870  0.75878174  0.76254902    -0.19900
C829        C  0.25006908  0.62536793  0.69974297    -0.21300
C830        C  0.25789886  0.62368933  0.65258040    -0.09400
C831        C  0.26188160  0.59013171  0.63300486     0.29500
C832        C  0.25644334  0.55991178  0.65893428    -0.21300
C833        C  0.24663285  0.56172850  0.70490734    -0.09400
C834        C  0.24446521  0.59481194  0.72562222     0.29500
F835        F  0.23658843  0.59758590  0.77093124    -0.19900
H836        H  0.24726864  0.65027515  0.71630217     0.17800
H837        H  0.25843134  0.53492850  0.64229402     0.17900
F838        F  0.27014478  0.58600928  0.58802218    -0.19900
C839        C  0.24855717  0.86969288  0.69543080    -0.21300
C840        C  0.25917804  0.87201023  0.64941822    -0.09400
C841        C  0.26630772  0.90563000  0.63152757     0.29500
C842        C  0.26116627  0.93559193  0.65800146    -0.21300
C843        C  0.24842934  0.93325654  0.70274158    -0.09400
C844        C  0.24316496  0.89978250  0.72171352     0.29500
F845        F  0.23219107  0.89610277  0.76568871    -0.19900
H846        H  0.24316418  0.84462621  0.71064484     0.17800
H847        H  0.26559249  0.96080832  0.64258934     0.17900
F848        F  0.27746314  0.90994958  0.58773024    -0.19900
C849        C  0.37139145  0.60497283  0.47503851    -0.21300
C850        C  0.37688954  0.63344502  0.50410253    -0.09400
C851        C  0.40807323  0.63688950  0.52768195     0.29500
C852        C  0.43336457  0.61213505  0.52207247    -0.21300
C853        C  0.42806925  0.58428747  0.49207083    -0.09400
C854        C  0.39692165  0.58065997  0.46871509     0.29500
F855        F  0.39160019  0.55401090  0.43907034    -0.19900
H856        H  0.34769647  0.60215220  0.45607749     0.17800
H857        H  0.45722310  0.61480386  0.54067501     0.17900
F858        F  0.41404679  0.66401141  0.55617474    -0.19900
C859        C  0.12268659  0.63463082  0.51127967    -0.21300
C860        C  0.15269106  0.63327048  0.48599595    -0.09400
C861        C  0.15663237  0.60806742  0.45170244     0.29500
C862        C  0.13070207  0.58435632  0.44308042    -0.21300
C863        C  0.10097465  0.58513951  0.46914436    -0.09400
C864        C  0.09713734  0.61039899  0.50349976     0.29500
F865        F  0.06905481  0.61114721  0.53014555    -0.19900
H866        H  0.11935442  0.65410635  0.53764820     0.17800
H867        H  0.13389658  0.56504843  0.41647448     0.17900
F868        F  0.18503307  0.60706943  0.42569576    -0.19900
C869        C  0.12552274  0.90467912  0.43582770    -0.21300
C870        C  0.09813541  0.90681711  0.46608815    -0.09400
C871        C  0.09678973  0.88466545  0.50466889     0.29500
C872        C  0.12243725  0.86036875  0.51244767    -0.21300
C873        C  0.15009629  0.85866156  0.48263552    -0.09400
C874        C  0.15149972  0.88082276  0.44409805     0.29500
F875        F  0.17753066  0.87878495  0.41397635    -0.19900
H876        H  0.12685334  0.92178096  0.40612556     0.17800
H877        H  0.12112646  0.84336178  0.54225400     0.17900
F878        F  0.07113907  0.88720872  0.53530433    -0.19900
C879        C  0.36914382  0.88898216  0.47060431    -0.21300
C880        C  0.37374572  0.86277915  0.50374148    -0.09400
C881        C  0.40395215  0.86105874  0.52975886     0.29500
C882        C  0.42972690  0.88494137  0.52159418    -0.21300
C883        C  0.42565309  0.91021537  0.48698972    -0.09400
C884        C  0.39504267  0.91239132  0.46189550     0.29500
F885        F  0.39048435  0.93686470  0.42854124    -0.19900
H886        H  0.34599198  0.89044725  0.45011879     0.17800
H887        H  0.45292714  0.88367854  0.54195556     0.17900
F888        F  0.40832512  0.83652780  0.56307910    -0.19900
C889        C  0.12107786  0.77711815  0.36699054    -0.21300
C890        C  0.14810195  0.75602969  0.35259321    -0.09400
C891        C  0.14332181  0.73548305  0.31340217     0.29500
C892        C  0.11142443  0.73430225  0.29121626    -0.21300
C893        C  0.08318930  0.75300605  0.30816424    -0.09400
C894        C  0.08932657  0.77605949  0.34491846     0.29500
F895        F  0.06453944  0.79740527  0.36012859    -0.19900
H896        H  0.12429786  0.79388250  0.39662960     0.17800
H897        H  0.10942989  0.71870974  0.26052964     0.17900
F898        F  0.16884676  0.71520571  0.29791953    -0.19900
C899        C  0.39285098  0.76773342  0.32774470    -0.21300
C900        C  0.38876754  0.74496689  0.36533118    -0.09400
C901        C  0.41673328  0.72420752  0.37885927     0.29500
C902        C  0.44778954  0.72648224  0.35583608    -0.21300
C903        C  0.45218798  0.74956923  0.31872941    -0.09400
C904        C  0.42419782  0.77021370  0.30482917     0.29500
F905        F  0.42754781  0.79410194  0.27065101    -0.19900
H906        H  0.37222880  0.78472301  0.31739755     0.17800
H907        H  0.46850235  0.70989789  0.36702755     0.17900
F908        F  0.41409102  0.70157351  0.41469693    -0.19900
C909        C  0.24233069  0.89765474  0.28308780    -0.21300
C910        C  0.25089334  0.93052087  0.30147435    -0.09400
C911        C  0.26670634  0.93135507  0.34506539     0.29500
C912        C  0.27236370  0.90072263  0.37019653    -0.21300
C913        C  0.26241972  0.86802496  0.35300882    -0.09400
C914        C  0.24796960  0.86679346  0.30839455     0.29500
F915        F  0.23773821  0.83615917  0.29009211    -0.19900
H916        H  0.23070851  0.89580234  0.24914490     0.17800
H917        H  0.28374031  0.90286128  0.40427819     0.17900
F918        F  0.27491315  0.96188642  0.36500165    -0.19900
C919        C  0.27330962  0.58965876  0.37667939    -0.21300
C920        C  0.26265746  0.62243775  0.35973012    -0.09400
C921        C  0.24562019  0.62357835  0.31689944     0.29500
C922        C  0.23899541  0.59288528  0.29246853    -0.21300
C923        C  0.24862404  0.56003562  0.31018140    -0.09400
C924        C  0.26628339  0.55893313  0.35249725     0.29500
F925        F  0.27499240  0.52814253  0.37199202    -0.19900
H926        H  0.28620638  0.58759878  0.40980424     0.17800
H927        H  0.22571291  0.59489696  0.25964289     0.17900
F928        F  0.23356788  0.65402602  0.29976966    -0.19900
O929        O  0.76307319  0.18670055  0.37091132    -0.80200
O930        O  0.76169767  0.18687701  0.63650599    -0.81700
O931        O  0.82011234  0.15272182  0.49326611    -0.78700
O932        O  0.70854527  0.15011370  0.49732244    -0.77100
O933        O  0.66736889  0.19165048  0.49981666    -0.78900
O934        O  0.86066194  0.19458485  0.50041526    -0.79800
O935        O  0.76420476  0.14838741  0.57669500    -0.81200
O936        O  0.76471739  0.14767902  0.43073980    -0.81500
Eu937      Eu  0.76388658  0.17881935  0.50316387     2.39200
O938        O  0.72989427  0.21236605  0.55174423    -0.89000
O939        O  0.79674183  0.21419527  0.45598947    -0.92600
C940        C  0.76404928  0.15513854  0.38741187     1.02100
C941        C  0.76275382  0.15550185  0.61995814     1.01900
C942        C  0.85114096  0.16327766  0.49322120     1.01900
C943        C  0.67736343  0.16012301  0.49639205     0.99700
H944        H  0.81163335  0.19810212  0.57177923     0.29500
O945        O  0.79694892  0.21291509  0.55361187    -1.01400
H946        H  0.71511483  0.19817411  0.43496253     0.29500
O947        O  0.72961347  0.21273969  0.45384977    -1.03900
O948        O  0.76193947  0.30831775  0.63592850    -0.81100
O949        O  0.76310612  0.30744052  0.36913084    -0.80700
O950        O  0.85900177  0.24713247  0.58009860    -0.79100
O951        O  0.66626653  0.24489506  0.57461270    -0.82400
O952        O  0.66652998  0.24975974  0.42954145    -0.80300
O953        O  0.85952590  0.24603149  0.43220987    -0.78900
O954        O  0.81676786  0.34610016  0.50354606    -0.80500
O955        O  0.70756366  0.34404538  0.49436974    -0.82400
O956        O  0.85751459  0.30425844  0.50567950    -0.79100
O957        O  0.66709662  0.30192322  0.49971036    -0.81800
O958        O  0.82118312  0.24784367  0.63952649    -0.77500
O959        O  0.82207774  0.24638054  0.37102369    -0.77600
O960        O  0.70362295  0.24898093  0.36936026    -0.77200
O961        O  0.70302777  0.24543632  0.63609928    -0.80700
O962        O  0.76231998  0.34707714  0.57581145    -0.80100
O963        O  0.76430469  0.34597038  0.42888973    -0.78500
Eu964      Eu  0.76249064  0.24751363  0.60262227     2.39800
Eu965      Eu  0.76301664  0.24746384  0.40437289     2.39600
Eu966      Eu  0.82978207  0.24837969  0.50548337     2.38400
Eu967      Eu  0.69655866  0.24691202  0.50265561     2.39900
Eu968      Eu  0.76262615  0.31612655  0.50289034     2.39800
O969        O  0.72941642  0.28153759  0.45397781    -0.92900
O970        O  0.79617898  0.28249896  0.55332255    -0.91800
C971        C  0.76217245  0.33984404  0.61922761     1.02300
C972        C  0.76392530  0.33880337  0.38555156     1.01000
C973        C  0.85190361  0.24693735  0.62337934     1.00400
C974        C  0.67246861  0.24431254  0.61820765     1.02400
C975        C  0.67311029  0.25034280  0.38625048     1.01300
C976        C  0.85265881  0.24527928  0.38864749     1.00200
C977        C  0.84782525  0.33599272  0.50452762     1.00200
C978        C  0.67664303  0.33346673  0.49440108     1.02800
H979        H  0.81130386  0.29693515  0.43676430     0.30200
O980        O  0.79666163  0.28226174  0.45486567    -1.05000
H981        H  0.71386642  0.29697548  0.56950469     0.32300
O982        O  0.72873714  0.28228437  0.55197268    -1.07600
N983        N  0.56473149  0.49619029  0.45590511    -0.36600
N984        N  0.01311529  0.44401294  0.46381241    -0.57200
N985        N  0.96400291  0.49703142  0.47656506    -0.36600
N986        N  0.01270883  0.05034685  0.44865319    -0.57200
C987        C  0.58280042  0.46786604  0.46833532     0.26900
C988        C  0.58344065  0.02429404  0.46961501     0.26900
C989        C  0.94905242  0.46914636  0.49555964     0.26900
C990        C  0.94329292  0.02806784  0.46551064     0.26900
C991        C  0.53895067  0.42416768  0.45238226     0.35600
C992        C  0.98480464  0.42468780  0.46096948     0.35600
C993        C  0.54110431  0.06881819  0.44758637     0.35600
C994        C  0.98571036  0.07079779  0.43970931     0.35600
C995        C  0.61314310  0.47774397  0.48910906    -0.21900
C996        C  0.61348764  0.01418262  0.49117801    -0.21900
C997        C  0.92514267  0.47946152  0.52741167    -0.21900
C998        C  0.91523244  0.01985622  0.49186193    -0.21900
C999        C  0.52729691  0.39169322  0.43944966    -0.23000
C1000       C  0.99214618  0.39220999  0.44337462    -0.23000
C1001       C  0.53130030  0.10168389  0.43320166    -0.23000
C1002       C  0.99628854  0.10360250  0.42633618    -0.23000
C1003       C  0.57286682  0.43341657  0.45996529    -0.18300
C1004       C  0.57424591  0.05894578  0.46006179    -0.18300
C1005       C  0.95236814  0.06189673  0.45181781    -0.18300
C1006       C  0.95405927  0.43505940  0.48061923    -0.18300
H1007       H  0.63290059  0.46109537  0.50300302     0.14600
H1008       H  0.63340959  0.03064999  0.50479524     0.14600
H1009       H  0.90876849  0.46304868  0.54779449     0.14600
H1010       H  0.89687616  0.03749164  0.50624814     0.14600
H1011       H  0.54228632  0.36976027  0.42858782     0.12900
H1012       H  0.97491991  0.37069530  0.43824695     0.12900
H1013       H  0.54752707  0.12361666  0.42585071     0.12900
H1014       H  0.98058078  0.12595134  0.41860786     0.12900
H1015       H  0.54242226  0.49652745  0.43617919     0.26100
H1016       H  0.97971752  0.49702016  0.44785037     0.26100
O1017       O  0.98516044  0.44111307  0.87277481    -0.80200
O1018       O  0.98820492  0.44163676  0.13952369    -0.81700
O1019       O  0.53999465  0.40526631  0.00046594    -0.78700
O1020       O  0.93048075  0.40391111  0.00695973    -0.77100
O1021       O  0.88937389  0.44546092  0.01076119    -0.78900
O1022       O  0.58049704  0.44753301  0.99935949    -0.79800
O1023       O  0.98558522  0.40229652  0.08055438    -0.81200
O1024       O  0.98452161  0.40215823  0.93259330    -0.81500
Eu1025     Eu  0.98513155  0.43273939  0.00675752     2.39200
O1026       O  0.95230876  0.46729383  0.05593875    -0.89000
O1027       O  0.51808463  0.46743459  0.95438674    -0.92600
C1028       C  0.98515472  0.40965997  0.88912626     1.02100
C1029       C  0.98725354  0.40995566  0.12372712     1.01900
C1030       C  0.57092782  0.41569053  0.99851866     1.01900
C1031       C  0.89940124  0.41379586  0.00860740     0.99700
H1032       H  0.53480738  0.45461567  0.07030488     0.29500
O1033       O  0.51985561  0.46929284  0.05213054    -1.01400
H1034       H  0.93548400  0.45177851  0.94077156     0.29500
O1035       O  0.95018888  0.46668844  0.95864115    -1.03900
O1036       O  0.98994144  0.06244272  0.13091182    -0.81100
O1037       O  0.98571621  0.06072726  0.86681984    -0.80700
O1038       O  0.58214376  0.50344689  0.07355523    -0.79100
O1039       O  0.88957721  0.50462936  0.08215222    -0.82400
O1040       O  0.88657488  0.00285536  0.93050869    -0.80300
O1041       O  0.58100514  0.00335053  0.92712276    -0.78900
O1042       O  0.54000980  0.09769237  0.99623858    -0.80500
O1043       O  0.92792803  0.09545210  0.98983976    -0.82400
O1044       O  0.58114530  0.05614768  0.99861841    -0.79100
O1045       O  0.88751476  0.05359956  0.99737545    -0.81800
O1046       O  0.54709436  0.50321906  0.13550558    -0.77500
O1047       O  0.54145077  0.99997040  0.86871089    -0.77600
O1048       O  0.92285788  0.00149466  0.86914741    -0.77200
O1049       O  0.92845128  0.50312305  0.14157431    -0.80700
O1050       O  0.98474093  0.10066888  0.07059958    -0.80100
O1051       O  0.98452736  0.09973473  0.92613889    -0.78500
Eu1052     Eu  0.98662519  0.50249738  0.10471451     2.39800
Eu1053     Eu  0.98295926  0.99982153  0.90125882     2.39600
Eu1054     Eu  0.55159322  0.50327708  0.00110922     2.38400
Eu1055     Eu  0.91768355  0.50161386  0.00776335     2.39900
Eu1056     Eu  0.98413317  0.06871473  0.99879714     2.39800
O1057       O  0.95005242  0.03332129  0.95246231    -0.92900
O1058       O  0.52129199  0.03652225  0.04981818    -0.91800
C1059       C  0.98759997  0.09382581  0.11396482     1.02300
C1060       C  0.98588941  0.09228184  0.88305126     1.01000
C1061       C  0.57718207  0.50260084  0.11717053     1.00400
C1062       C  0.89743672  0.50475282  0.12544001     1.02400
C1063       C  0.89263653  0.00314074  0.88691608     1.01300
C1064       C  0.57259279  0.00239156  0.88418486     1.00200
C1065       C  0.57116410  0.08772045  0.99533189     1.00200
C1066       C  0.89686591  0.08503394  0.99039337     1.02800
H1067       H  0.53129635  0.04925162  0.93348051     0.30200
O1068       O  0.51748615  0.03460252  0.95276177    -1.05000
H1069       H  0.93856742  0.04988853  0.06831470     0.32300
O1070       O  0.95263736  0.03483499  0.05013943    -1.07600
N1071       N  0.78659801  0.25042284  0.96455606    -0.36600
N1072       N  0.73449296  0.19937081  0.95428027    -0.57200
N1073       N  0.68324641  0.25152645  0.96460126    -0.36600
N1074       N  0.73525594  0.30286936  0.97616702    -0.57200
C1075       C  0.80377349  0.22080654  0.97315120     0.26900
C1076       C  0.80398434  0.27614020  0.98551986     0.26900
C1077       C  0.66617416  0.22245688  0.97589859     0.26900
C1078       C  0.66615737  0.27835345  0.98281061     0.26900
C1079       C  0.76135842  0.18034922  0.94154959     0.35600
C1080       C  0.70669466  0.18060097  0.94396019     0.35600
C1081       C  0.76292205  0.32284586  0.97080999     0.35600
C1082       C  0.70833676  0.32361797  0.96826978     0.35600
C1083       C  0.83236530  0.22776833  0.99996178    -0.21900
C1084       C  0.83249652  0.26284228  0.00775725    -0.21900
C1085       C  0.63807951  0.23099015  0.00203394    -0.21900
C1086       C  0.63787776  0.26644362  0.00590661    -0.21900
C1087       C  0.75065302  0.14963552  0.92148077    -0.23000
C1088       C  0.71577308  0.14980823  0.92296803    -0.23000
C1089       C  0.75366570  0.35638047  0.95879927    -0.23000
C1090       C  0.71884974  0.35685310  0.95709602    -0.23000
C1091       C  0.79470546  0.18800016  0.95580788    -0.18300
C1092       C  0.79591916  0.31153294  0.98161479    -0.18300
C1093       C  0.67480190  0.31336683  0.97659203    -0.18300
C1094       C  0.67433343  0.18886900  0.96051878    -0.18300
H1095       H  0.85119469  0.20953744  0.01260905     0.14600
H1096       H  0.85151105  0.27698402  0.02725619     0.14600
H1097       H  0.61946207  0.21360730  0.01659409     0.14600
H1098       H  0.61919977  0.28169999  0.02383300     0.14600
H1099       H  0.76634274  0.12857223  0.90952275     0.12900
H1100       H  0.69915290  0.12893316  0.91225861     0.12900
H1101       H  0.77019423  0.37831129  0.95286036     0.12900
H1102       H  0.70312572  0.37923970  0.94973826     0.12900
H1103       H  0.76627839  0.25348802  0.94152817     0.26100
H1104       H  0.70321740  0.25344848  0.94147552     0.26100
C1105       C  0.54333205  0.25063965  0.28309453     0.86500
C1106       C  0.53859434  0.22101629  0.24871259    -0.59400
C1107       C  0.00770818  0.21758421  0.22589966     0.09400
C1108       C  0.98602641  0.25003947  0.23761966     0.20300
C1109       C  0.53853794  0.28379536  0.25480196    -0.54500
C1110       C  0.00936867  0.28247566  0.23146113     0.09500
C1111       C  0.01172407  0.24470749  0.31437598    -0.54000
C1112       C  0.98128835  0.24710675  0.29040749     0.10000
H1113       H  0.55609207  0.19946607  0.24640156     0.14600
H1114       H  0.96163302  0.25102700  0.21827928     0.00300
H1115       H  0.55761801  0.30408858  0.25481081     0.14900
H1116       H  0.01310239  0.24220471  0.35168405     0.14700
C1117       C  0.70627043  0.49838458  0.22410142     0.86500
C1118       C  0.71153319  0.46545743  0.25274510    -0.53800
C1119       C  0.74068921  0.46472276  0.27871044     0.09400
C1120       C  0.76191214  0.49871461  0.27485645     0.20300
C1121       C  0.71418340  0.02830128  0.25289931    -0.54500
C1122       C  0.74307023  0.02916442  0.27953015     0.09500
C1123       C  0.73981838  0.50217675  0.19645454    -0.54000
C1124       C  0.76899352  0.50193520  0.22295763     0.10000
H1125       H  0.69393997  0.44380612  0.25121604     0.14600
H1126       H  0.78550324  0.49884724  0.29597989     0.00300
H1127       H  0.69531148  0.04879135  0.25338308     0.14900
H1128       H  0.74117929  0.50513609  0.15942364     0.14700
C1129       C  0.54521096  0.25099153  0.72476888     0.86500
C1130       C  0.54187482  0.28288487  0.75567426    -0.53800
C1131       C  0.01093614  0.28608532  0.77899433     0.09400
C1132       C  0.98943467  0.25239197  0.77249044     0.20300
C1133       C  0.54170230  0.22004395  0.75732054    -0.54500
C1134       C  0.01345247  0.22059290  0.78087176     0.09500
C1135       C  0.01119046  0.25189657  0.69447672    -0.54000
C1136       C  0.98214056  0.25135613  0.72033417     0.10000
H1137       H  0.56033956  0.30377444  0.75573743     0.14600
H1138       H  0.96576496  0.25165138  0.79251861     0.00300
H1139       H  0.56135831  0.20048553  0.75868664     0.14900
H1140       H  0.00984439  0.25004354  0.65724995     0.14700
C1141       C  0.70153809  0.49561849  0.78298202     0.86500
C1142       C  0.70429620  0.02858110  0.74775335    -0.53800
C1143       C  0.73470581  0.03010561  0.72580242     0.09400
C1144       C  0.75999486  0.49538542  0.74009702     0.20300
C1145       C  0.70719143  0.46393441  0.75172838    -0.54500
C1146       C  0.73773367  0.46304892  0.73005147     0.09500
C1147       C  0.73320885  0.49532066  0.81556219    -0.54000
C1148       C  0.76384347  0.49524422  0.79297854     0.10000
H1149       H  0.68518974  0.04872718  0.74419852     0.14600
H1150       H  0.78464421  0.49556786  0.72193579     0.00300
H1151       H  0.68975480  0.44245757  0.74848204     0.14900
H1152       H  0.73152110  0.49556915  0.85292273     0.14700
C1153       C  0.60963386  0.50080506  0.19433881    -0.21300
C1154       C  0.60933126  0.50025691  0.14581924    -0.09400
C1155       C  0.64107096  0.49690898  0.12355705     0.29500
C1156       C  0.67149103  0.49580538  0.14850678    -0.21300
C1157       C  0.67229436  0.49800212  0.19678362    -0.09400
C1158       C  0.64057486  0.49932156  0.21953794     0.29500
F1159       F  0.64562876  0.99603153  0.26191983    -0.19900
H1160       H  0.58599871  0.50249439  0.21283435     0.17800
H1161       H  0.69422700  0.49253655  0.12883103     0.17900
F1162       F  0.64340138  0.49437455  0.07696619    -0.19900
C1163       C  0.81798178  0.03123420  0.17398299    -0.21300
C1164       C  0.80387690  0.50515853  0.20280320    -0.09400
C1165       C  0.83155885  0.48464301  0.21825168     0.29500
C1166       C  0.86309235  0.48596083  0.19542053    -0.21300
C1167       C  0.86757624  0.50771999  0.15682385    -0.09400
C1168       C  0.84938568  0.03276060  0.15179312     0.29500
F1169       F  0.85665675  0.06074447  0.12507167    -0.19900
H1170       H  0.80013108  0.05233592  0.16926086     0.17800
H1171       H  0.88326157  0.46858340  0.20625345     0.17900
F1172       F  0.82755553  0.46162544  0.25332799    -0.19900
C1173       C  0.01332574  0.34813441  0.22202835    -0.21300
C1174       C  0.00025637  0.31592262  0.20648384    -0.09400
C1175       C  0.47904773  0.32009990  0.16573655     0.29500
C1176       C  0.47359961  0.35105940  0.14099105    -0.21300
C1177       C  0.98892556  0.37908948  0.15568735    -0.09400
C1178       C  0.00794736  0.37916817  0.19702157     0.29500
F1179       F  0.02307025  0.40873380  0.21191486    -0.19900
H1180       H  0.02835589  0.34941174  0.25346997     0.17800
H1181       H  0.45907743  0.34982693  0.10906249     0.17900
F1182       F  0.46651735  0.29025753  0.14802828    -0.19900
C1183       C  0.98436358  0.15870706  0.12532466    -0.21300
C1184       C  0.98869010  0.12514501  0.14481551    -0.09400
C1185       C  0.50161744  0.12521228  0.19290242     0.29500
C1186       C  0.50567227  0.15584478  0.21843597    -0.21300
C1187       C  0.99649904  0.18647938  0.19887335    -0.09400
C1188       C  0.98843018  0.18887162  0.15178880     0.29500
F1189       F  0.98696098  0.22024134  0.13053407    -0.19900
H1190       H  0.97898033  0.16189590  0.08881863     0.17800
H1191       H  0.51613878  0.15382099  0.25307292     0.17900
F1192       F  0.51188805  0.09475966  0.21206449    -0.19900
C1193       C  0.65211668  0.36588656  0.01535736    -0.21300
C1194       C  0.64823839  0.33993158  0.98198381    -0.09400
C1195       C  0.61877315  0.33898070  0.95428888     0.29500
C1196       C  0.59314912  0.36324154  0.96081996    -0.21300
C1197       C  0.59724138  0.38938691  0.99382720    -0.09400
C1198       C  0.62706828  0.39094756  0.02065191     0.29500
F1199       F  0.63166480  0.41631980  0.05239619    -0.19900
H1200       H  0.67465437  0.36676758  0.03709115     0.17800
H1201       H  0.57052763  0.36226626  0.93922383     0.17900
F1202       F  0.61515575  0.31495128  0.92051620    -0.19900
C1203       C  0.81845212  0.36339578  0.02309681    -0.21300
C1204       C  0.82287177  0.33735966  0.99002488    -0.09400
C1205       C  0.85304863  0.33594306  0.96490383     0.29500
C1206       C  0.87838900  0.36025353  0.97279563    -0.21300
C1207       C  0.87357449  0.38688609  0.00473390    -0.09400
C1208       C  0.84347207  0.38843627  0.02998676     0.29500
F1209       F  0.83845043  0.41385709  0.06139174    -0.19900
H1210       H  0.79543353  0.36449227  0.04307848     0.17800
H1211       H  0.90131551  0.35907328  0.95259399     0.17900
F1212       F  0.85765170  0.31151198  0.93202171    -0.19900
C1213       C  0.87629175  0.13750442  0.94896432    -0.21300
C1214       C  0.87016213  0.11061380  0.98062283    -0.09400
C1215       C  0.83811169  0.10778236  0.00108900     0.29500
C1216       C  0.81314403  0.13233842  0.99125636    -0.21300
C1217       C  0.81957569  0.15959901  0.96041127    -0.09400
C1218       C  0.85111720  0.16177570  0.93866554     0.29500
F1219       F  0.85779911  0.18796846  0.90864606    -0.19900
H1220       H  0.90056929  0.13963932  0.93207987     0.17800
H1221       H  0.78908747  0.13077448  0.00884323     0.17900
F1222       F  0.83134613  0.08217726  0.03193862    -0.19900
C1223       C  0.61604462  0.16588351  0.94821691    -0.21300
C1224       C  0.64886578  0.16116189  0.96635514    -0.09400
C1225       C  0.65601710  0.13212503  0.99430822     0.29500
C1226       C  0.63047127  0.10838258  0.00409675    -0.21300
C1227       C  0.59733561  0.11386554  0.98733156    -0.09400
C1228       C  0.59022521  0.14291651  0.95944297     0.29500
F1229       F  0.55852890  0.14880028  0.94228343    -0.19900
H1230       H  0.61020256  0.18821460  0.92672814     0.17800
H1231       H  0.63644094  0.08600481  0.02544767     0.17900
F1232       F  0.68733003  0.12733636  0.01332009    -0.19900
C1233       C  0.82334832  0.47264814  0.80671599    -0.21300
C1234       C  0.79776931  0.49695327  0.81657318    -0.09400
C1235       C  0.80346967  0.02703310  0.84686020     0.29500
C1236       C  0.83541900  0.02834295  0.86880583    -0.21300
C1237       C  0.86167124  0.00538855  0.85674108    -0.09400
C1238       C  0.85538654  0.47430014  0.82888857     0.29500
F1239       F  0.87848742  0.44894919  0.82132095    -0.19900
H1240       H  0.81813867  0.45179318  0.78277103     0.17800
H1241       H  0.83947411  0.04693466  0.89623538     0.17900
F1242       F  0.77920562  0.05002575  0.85926578    -0.19900
C1243       C  0.62932695  0.52704298  0.86182769    -0.21300
C1244       C  0.60195474  0.00418153  0.85224045    -0.09400
C1245       C  0.60669360  0.97963320  0.81746714     0.29500
C1246       C  0.63786686  0.97751126  0.79445868    -0.21300
C1247       C  0.66666899  0.49776538  0.80728632    -0.09400
C1248       C  0.66043037  0.52472320  0.83884594     0.29500
F1249       F  0.68464095  0.54886664  0.84788358    -0.19900
H1250       H  0.62612221  0.54720555  0.88730059     0.17800
H1251       H  0.63949644  0.95849660  0.76752260     0.17900
F1252       F  0.58184669  0.95645043  0.80730645    -0.19900
C1253       C  0.46680982  0.15073359  0.85915620    -0.21300
C1254       C  0.98905994  0.12329941  0.85206982    -0.09400
C1255       C  0.01059783  0.12365525  0.81390514     0.29500
C1256       C  0.01758613  0.15493226  0.79064261    -0.21300
C1257       C  0.00409695  0.18711058  0.80533689    -0.09400
C1258       C  0.47401549  0.18201318  0.83599483     0.29500
F1259       F  0.45434014  0.20975283  0.84538830    -0.19900
H1260       H  0.44666293  0.15041203  0.88418077     0.17800
H1261       H  0.03395527  0.15362132  0.76105441     0.17900
F1262       F  0.02657662  0.09424304  0.80071670    -0.19900
C1263       C  0.48154872  0.34410954  0.87644440    -0.21300
C1264       C  0.98694152  0.37931727  0.85698165    -0.09400
C1265       C  0.00162831  0.38173416  0.81303714     0.29500
C1266       C  0.00824380  0.35158090  0.78748167    -0.21300
C1267       C  0.00000711  0.31819991  0.80453490    -0.09400
C1268       C  0.48823233  0.31386327  0.85124491     0.29500
F1269       F  0.48168494  0.28257433  0.87078229    -0.19900
H1270       H  0.47102056  0.34124101  0.91060260     0.17800
H1271       H  0.02035733  0.35444514  0.75435166     0.17900
F1272       F  0.01108993  0.41294043  0.79556358    -0.19900
C1273       C  0.88743593  0.26661352  0.69267607    -0.21300
C1274       C  0.88234657  0.24454609  0.65473354    -0.09400
C1275       C  0.90936912  0.22286722  0.64185524     0.29500
C1276       C  0.94118090  0.22495550  0.66359666    -0.21300
C1277       C  0.94706592  0.24823615  0.69976278    -0.09400
C1278       C  0.91942053  0.26826694  0.71530325     0.29500
F1279       F  0.92374414  0.29087681  0.75058287    -0.19900
H1280       H  0.86728172  0.28374368  0.70334527     0.17800
H1281       H  0.96141392  0.20832093  0.65185177     0.17900
F1282       F  0.90505703  0.19980513  0.60726180    -0.19900
C1283       C  0.57926100  0.23687159  0.65187633    -0.21300
C1284       C  0.57887782  0.24878919  0.69766833    -0.09400
C1285       C  0.61088868  0.25449956  0.71941727     0.29500
C1286       C  0.64145072  0.25228954  0.69448367    -0.21300
C1287       C  0.64121066  0.24287677  0.64769098    -0.09400
C1288       C  0.60953006  0.23368285  0.62752736     0.29500
F1289       F  0.60745144  0.22097114  0.58394266    -0.19900
H1290       H  0.55628558  0.22870748  0.63450805     0.17800
H1291       H  0.66522303  0.25838022  0.71170682     0.17900
F1292       F  0.61276264  0.26205691  0.76503929    -0.19900
C1293       C  0.74490146  0.12633017  0.69415858    -0.21300
C1294       C  0.76082923  0.12448584  0.65122872    -0.09400
C1295       C  0.77140107  0.09144586  0.63566583     0.29500
C1296       C  0.76397327  0.06118883  0.66071971    -0.21300
C1297       C  0.74581952  0.06280313  0.70183769    -0.09400
C1298       C  0.73753101  0.09600624  0.71927121     0.29500
F1299       F  0.72211554  0.09933727  0.76064282    -0.19900
H1300       H  0.73681521  0.15112904  0.70746760     0.17800
H1301       H  0.77128135  0.03629845  0.64690346     0.17900
F1302       F  0.78823936  0.08810175  0.59533943    -0.19900
C1303       C  0.74887507  0.36787022  0.69589020    -0.21300
C1304       C  0.76107512  0.37073720  0.65071204    -0.09400
C1305       C  0.76956097  0.40437372  0.63426550     0.29500
C1306       C  0.76351776  0.43404456  0.66092764    -0.21300
C1307       C  0.74891730  0.43123670  0.70458149    -0.09400
C1308       C  0.74295420  0.39760544  0.72255037     0.29500
F1309       F  0.73103273  0.39340395  0.76596553    -0.19900
H1310       H  0.74265567  0.34266667  0.71007009     0.17800
H1311       H  0.76893464  0.45938982  0.64653563     0.17900
F1312       F  0.78309882  0.40889855  0.59179070    -0.19900
C1313       C  0.87123513  0.11370768  0.44714988    -0.21300
C1314       C  0.87751460  0.13810864  0.48195489    -0.09400
C1315       C  0.90957218  0.13929286  0.50355264     0.29500
C1316       C  0.93402987  0.11477974  0.49288589    -0.21300
C1317       C  0.92749227  0.08988648  0.45891744    -0.09400
C1318       C  0.89624117  0.08997975  0.43518557     0.29500
F1319       F  0.88983616  0.06681021  0.40110194    -0.19900
H1320       H  0.84710914  0.11334230  0.42884707     0.17800
H1321       H  0.95799933  0.11486277  0.51159274     0.17900
F1322       F  0.91708480  0.16354675  0.53564168    -0.19900
C1323       C  0.62142948  0.13398652  0.51386037    -0.21300
C1324       C  0.65124827  0.13401473  0.48799891    -0.09400
C1325       C  0.65494577  0.11056527  0.45153803     0.29500
C1326       C  0.62926426  0.08689575  0.44160954    -0.21300
C1327       C  0.59982885  0.08621588  0.46815800    -0.09400
C1328       C  0.59593228  0.10991266  0.50438371     0.29500
F1329       F  0.56783276  0.10921132  0.53101941    -0.19900
H1330       H  0.61816503  0.15226599  0.54171038     0.17800
H1331       H  0.63240858  0.06877183  0.41356153     0.17900
F1332       F  0.68288646  0.11138426  0.42461293    -0.19900
C1333       C  0.62653968  0.40481997  0.43831588    -0.21300
C1334       C  0.59816863  0.40593049  0.46682918    -0.09400
C1335       C  0.59566098  0.38317576  0.50464411     0.29500
C1336       C  0.62148077  0.35946876  0.51370088    -0.21300
C1337       C  0.65020329  0.35895634  0.48579856    -0.09400
C1338       C  0.65260825  0.38151827  0.44783718     0.29500
F1339       F  0.67972745  0.38036519  0.41943573    -0.19900
H1340       H  0.62865524  0.42246506  0.40927808     0.17800
H1341       H  0.61942022  0.34196619  0.54291034     0.17900
F1342       F  0.56882369  0.38472916  0.53349622    -0.19900
C1343       C  0.86765177  0.39358737  0.47889852    -0.21300
C1344       C  0.87430548  0.36235738  0.50219328    -0.09400
C1345       C  0.90704340  0.35558503  0.51986293     0.29500
C1346       C  0.93290666  0.37946341  0.51311205    -0.21300
C1347       C  0.92661467  0.40986347  0.48787029    -0.09400
C1348       C  0.89368111  0.41710320  0.47136348     0.29500
F1349       F  0.88683542  0.44676304  0.44757047    -0.19900
H1350       H  0.84261037  0.39922488  0.46496469     0.17800
H1351       H  0.95793897  0.37416917  0.52729235     0.17900
F1352       F  0.91404672  0.32596729  0.54364040    -0.19900
C1353       C  0.61380305  0.27108416  0.37258414    -0.21300
C1354       C  0.64221253  0.25299852  0.35596274    -0.09400
C1355       C  0.63868097  0.23520233  0.31410898     0.29500
C1356       C  0.60709519  0.23437585  0.29083702    -0.21300
C1357       C  0.57784641  0.25061516  0.30910610    -0.09400
C1358       C  0.58239780  0.27035398  0.34948051     0.29500
F1359       F  0.55652363  0.28920226  0.36690085    -0.19900
H1360       H  0.61580797  0.28577136  0.40427527     0.17800
H1361       H  0.60613099  0.22124675  0.25805426     0.17900
F1362       F  0.66529356  0.21761240  0.29642272    -0.19900
C1363       C  0.88799631  0.26510783  0.32074910    -0.21300
C1364       C  0.88311370  0.24269609  0.35849139    -0.09400
C1365       C  0.91018829  0.22078625  0.37201593     0.29500
C1366       C  0.94152745  0.22220464  0.34963402    -0.21300
C1367       C  0.94702313  0.24541925  0.31295371    -0.09400
C1368       C  0.91957905  0.26658174  0.29825583     0.29500
F1369       F  0.92376328  0.29019586  0.26393810    -0.19900
H1370       H  0.86796470  0.28274810  0.31017545     0.17800
H1371       H  0.96166789  0.20504630  0.36122275     0.17900
F1372       F  0.90647474  0.19814961  0.40764948    -0.19900
C1373       C  0.74577654  0.39936090  0.28325759    -0.21300
C1374       C  0.75162682  0.43219718  0.30332822    -0.09400
C1375       C  0.76590096  0.43328265  0.34779645     0.29500
C1376       C  0.77177386  0.40263054  0.37267300    -0.21300
C1377       C  0.76349724  0.36982503  0.35417564    -0.09400
C1378       C  0.75172455  0.36850007  0.30820133     0.29500
F1379       F  0.74433160  0.33769352  0.28806553    -0.19900
H1380       H  0.73572381  0.39756263  0.24840655     0.17800
H1381       H  0.78158591  0.40485109  0.40760996     0.17900
F1382       F  0.77192898  0.46395036  0.36881160    -0.19900
C1383       C  0.77452298  0.09170101  0.37318967    -0.21300
C1384       C  0.76347686  0.12425410  0.35606391    -0.09400
C1385       C  0.74911684  0.12542032  0.31148467     0.29500
C1386       C  0.74385436  0.09466566  0.28650341    -0.21300
C1387       C  0.75279370  0.06181887  0.30500667    -0.09400
C1388       C  0.76956464  0.06105251  0.34803393     0.29500
F1389       F  0.77974875  0.03067695  0.36716410    -0.19900
H1390       H  0.78628240  0.08969813  0.40707760     0.17800
H1391       H  0.73213075  0.09662986  0.25261665     0.17900
F1392       F  0.73855316  0.15594310  0.29283715    -0.19900
O1393       O  0.76513085  0.68698180  0.37346608    -0.80200
O1394       O  0.75929148  0.68507138  0.63936817    -0.81700
O1395       O  0.81849685  0.64876576  0.50457341    -0.78700
O1396       O  0.70921307  0.64928185  0.49583362    -0.77100
O1397       O  0.66840143  0.69116609  0.49655813    -0.78900
O1398       O  0.85919707  0.69066614  0.50928942    -0.79800
O1399       O  0.76135715  0.64792921  0.57838692    -0.81200
O1400       O  0.76561604  0.64777394  0.43315039    -0.81500
Eu1401     Eu  0.76408328  0.67845713  0.50555060     2.39200
O1402       O  0.72903835  0.71136855  0.55358376    -0.89000
O1403       O  0.79956190  0.71302446  0.45999497    -0.92600
C1404       C  0.76481156  0.65543439  0.38995751     1.02100
C1405       C  0.75966225  0.65389320  0.62181373     1.01900
C1406       C  0.84956268  0.65891744  0.50597710     1.01900
C1407       C  0.67816021  0.65952691  0.49336409     0.99700
H1408       H  0.81030144  0.69695363  0.57600825     0.29500
O1409       O  0.79648311  0.71215305  0.55718101    -1.01400
H1410       H  0.71785307  0.69852525  0.43482622     0.29500
O1411       O  0.73207349  0.71277456  0.45450194    -1.03900
O1412       O  0.76113795  0.80743570  0.63923928    -0.81100
O1413       O  0.76512246  0.80778115  0.37296805    -0.80700
O1414       O  0.85934089  0.74396415  0.58702896    -0.79100
O1415       O  0.66633543  0.74803379  0.57284774    -0.82400
O1416       O  0.67069753  0.75090488  0.42701773    -0.80300
O1417       O  0.86435563  0.74629531  0.44040354    -0.78900
O1418       O  0.81803201  0.84505769  0.50565028    -0.80500
O1419       O  0.70859290  0.84321020  0.49732051    -0.82400
O1420       O  0.85946611  0.80389743  0.51205878    -0.79100
O1421       O  0.66800121  0.80099417  0.49820147    -0.81800
O1422       O  0.81952955  0.74534131  0.64417245    -0.77500
O1423       O  0.82805251  0.74797659  0.37792794    -0.77600
O1424       O  0.70947206  0.74994555  0.36876978    -0.77200
O1425       O  0.70153061  0.74952228  0.63600029    -0.80700
O1426       O  0.76251420  0.84606570  0.57905417    -0.80100
O1427       O  0.76387159  0.84627745  0.43271699    -0.78500
Eu1428     Eu  0.76150933  0.74638045  0.60549846     2.39800
Eu1429     Eu  0.76742413  0.74742171  0.40737657     2.39600
Eu1430     Eu  0.83161908  0.74712646  0.51137844     2.38400
Eu1431     Eu  0.69785348  0.74631849  0.50208481     2.39900
Eu1432     Eu  0.76400054  0.81533249  0.50614266     2.39800
O1433       O  0.73238696  0.78086264  0.45567756    -0.92900
O1434       O  0.79664888  0.78137542  0.55781959    -0.91800
C1435       C  0.76170456  0.83899245  0.62245778     1.02300
C1436       C  0.76393312  0.83915718  0.38935348     1.01000
C1437       C  0.85070110  0.74386257  0.62975097     1.00400
C1438       C  0.67150702  0.75019219  0.61653697     1.02400
C1439       C  0.67857832  0.75175918  0.38414948     1.01300
C1440       C  0.85839628  0.74692554  0.39656997     1.00200
C1441       C  0.84919127  0.83545159  0.50772376     1.00200
C1442       C  0.67764303  0.83266550  0.49539414     1.02800
H1443       H  0.81433471  0.79651005  0.44230057     0.30200
O1444       O  0.79954264  0.78163018  0.45986006    -1.05000
H1445       H  0.71429607  0.79611187  0.56979384     0.32300
O1446       O  0.72931416  0.78109393  0.55300046    -1.07600
N1447       N  0.56513480  0.99599866  0.45781041    -0.36600
N1448       N  0.01168748  0.94540289  0.45891444    -0.57200
N1449       N  0.96018467  0.99886246  0.45452520    -0.36600
N1450       N  0.01459346  0.54869556  0.46688411    -0.57200
C1451       C  0.58314667  0.96809990  0.47211412     0.26900
C1452       C  0.58326251  0.52401802  0.46877788     0.26900
C1453       C  0.94319394  0.97218465  0.47387610     0.26900
C1454       C  0.94926212  0.52504528  0.49514045     0.26900
C1455       C  0.53944118  0.92318799  0.45944906     0.35600
C1456       C  0.98371366  0.92544025  0.45624525     0.35600
C1457       C  0.53980911  0.56847626  0.45436720     0.35600
C1458       C  0.98690265  0.56891835  0.46295267     0.35600
C1459       C  0.61338441  0.97865373  0.49249649    -0.21900
C1460       C  0.61342908  0.51330145  0.48939452    -0.21900
C1461       C  0.91522995  0.98452484  0.49724800    -0.21900
C1462       C  0.92514103  0.51503746  0.52693013    -0.21900
C1463       C  0.52842188  0.88956985  0.45159004    -0.23000
C1464       C  0.99239653  0.89151089  0.44619920    -0.23000
C1465       C  0.52835928  0.60132343  0.44237606    -0.23000
C1466       C  0.99557130  0.60141866  0.44628764    -0.23000
C1467       C  0.57332285  0.93331133  0.46624936    -0.18300
C1468       C  0.57380358  0.55877427  0.46111981    -0.18300
C1469       C  0.95530130  0.55911858  0.48058006    -0.18300
C1470       C  0.95126234  0.93686081  0.46877545    -0.18300
H1471       H  0.63312207  0.96245074  0.50737998     0.14600
H1472       H  0.63342203  0.52938668  0.50362668     0.14600
H1473       H  0.89676373  0.96962234  0.51630351     0.14600
H1474       H  0.90889855  0.53164666  0.54696985     0.14600
H1475       H  0.54385218  0.86683591  0.44581705     0.12900
H1476       H  0.97562636  0.86940499  0.44312728     0.12900
H1477       H  0.54347351  0.62334796  0.43185359     0.12900
H1478       H  0.97903683  0.62347782  0.44078509     0.12900
H1479       H  0.54317319  0.99551118  0.43747450     0.26100
H1480       H  0.98017559  0.99700757  0.43147306     0.26100
O1481       O  0.98518984  0.93889691  0.86873059    -0.80200
O1482       O  0.99022799  0.94081906  0.13381540    -0.81700
O1483       O  0.54168717  0.90279241  0.00053741    -0.78700
O1484       O  0.93121673  0.90191947  0.99787449    -0.77100
O1485       O  0.88987720  0.94315621  0.00189026    -0.78900
O1486       O  0.58173261  0.94532128  0.99638162    -0.79800
O1487       O  0.98633222  0.90125456  0.07526087    -0.81200
O1488       O  0.98538842  0.90039662  0.92913816    -0.81500
Eu1489     Eu  0.98534175  0.93163600  0.00137019     2.39200
O1490       O  0.95336591  0.96571741  0.05178572    -0.89000
O1491       O  0.51844830  0.96522712  0.95472122    -0.92600
C1492       C  0.98587012  0.90749320  0.88576114     1.02100
C1493       C  0.98867351  0.90915805  0.11830355     1.01900
C1494       C  0.57245714  0.91338205  0.99657918     1.01900
C1495       C  0.90009416  0.91167252  0.99804119     0.99700
H1496       H  0.53741968  0.95195013  0.07026128     0.29500
O1497       O  0.52207420  0.96654558  0.05258586    -1.01400
H1498       H  0.93558488  0.95080405  0.93475541     0.29500
O1499       O  0.95033794  0.96548448  0.95291097    -1.03900
O1500       O  0.98900573  0.56345598  0.13679487    -0.81100
O1501       O  0.98590993  0.55983616  0.87107014    -0.80700
O1502       O  0.58524728  0.00004046  0.07105716    -0.79100
O1503       O  0.89162974  0.00228896  0.07944693    -0.82400
O1504       O  0.88659868  0.50088404  0.93472456    -0.80300
O1505       O  0.58113121  0.50381246  0.92797752    -0.78900
O1506       O  0.54031505  0.60056131  0.99109032    -0.80500
O1507       O  0.92882872  0.59860853  0.99050167    -0.82400
O1508       O  0.58077623  0.55832608  0.99462182    -0.79100
O1509       O  0.88824549  0.55680600  0.99786005    -0.81800
O1510       O  0.55131069  0.00163367  0.13410625    -0.77500
O1511       O  0.54215540  0.50055859  0.86880607    -0.77600
O1512       O  0.92365625  0.49951753  0.87425925    -0.77200
O1513       O  0.93218757  0.00171199  0.13705827    -0.80700
O1514       O  0.98505980  0.60244364  0.07693406    -0.80100
O1515       O  0.98633216  0.60032485  0.92892108    -0.78500
Eu1516     Eu  0.98920738  0.00115113  0.09893566     2.39800
Eu1517     Eu  0.98340687  0.50051481  0.90753247     2.39600
Eu1518     Eu  0.55256195  0.00079691  0.00066186     2.38400
Eu1519     Eu  0.91808590  0.99936250  0.00345527     2.39900
Eu1520     Eu  0.98411837  0.57106607  0.00379525     2.39800
O1521       O  0.95032891  0.53518856  0.95724040    -0.92900
O1522       O  0.51973497  0.53928052  0.04943174    -0.91800
C1523       C  0.98762466  0.59498744  0.12030136     1.02300
C1524       C  0.98730122  0.59151977  0.88615431     1.01000
C1525       C  0.58111533  0.00053129  0.11478735     1.00400
C1526       C  0.90089205  0.00277420  0.12229747     1.02400
C1527       C  0.89320610  0.50019011  0.89135094     1.01300
C1528       C  0.57317040  0.50250193  0.88485193     1.00200
C1529       C  0.57127843  0.58995645  0.98940743     1.00200
C1530       C  0.89782483  0.58807607  0.98960361     1.02800
H1531       H  0.53124464  0.55062060  0.93265208     0.30200
O1532       O  0.51705427  0.53660719  0.95220537    -1.05000
H1533       H  0.93725852  0.55247358  0.07280866     0.32300
O1534       O  0.95153446  0.53736451  0.05499267    -1.07600
N1535       N  0.78812456  0.74999357  0.94168856    -0.36600
N1536       N  0.73562039  0.69859848  0.93610972    -0.57200
N1537       N  0.68498419  0.75059212  0.95135091    -0.36600
N1538       N  0.73679737  0.80228196  0.95678824    -0.57200
C1539       C  0.80564618  0.72064286  0.95088817     0.26900
C1540       C  0.80617346  0.77633287  0.96016885     0.26900
C1541       C  0.66868870  0.72130350  0.96367657     0.26900
C1542       C  0.66927213  0.77699205  0.97274172     0.26900
C1543       C  0.76230226  0.67885779  0.92451973     0.35600
C1544       C  0.70764162  0.67934773  0.92853595     0.35600
C1545       C  0.76388252  0.82244019  0.94843183     0.35600
C1546       C  0.70935940  0.82288680  0.95260310     0.35600
C1547       C  0.83522718  0.72852186  0.97513131    -0.21900
C1548       C  0.83556247  0.76374835  0.98093914    -0.21900
C1549       C  0.64262823  0.72914802  0.99369494    -0.21900
C1550       C  0.64300133  0.76443621  0.99938724    -0.21900
C1551       C  0.75128116  0.64712492  0.90789675    -0.23000
C1552       C  0.71641163  0.64754399  0.91005061    -0.23000
C1553       C  0.75374888  0.85599170  0.93800741    -0.23000
C1554       C  0.71894433  0.85621782  0.94025577    -0.23000
C1555       C  0.79587448  0.68704256  0.93721108    -0.18300
C1556       C  0.79735670  0.81157164  0.95673053    -0.18300
C1557       C  0.67670597  0.81224217  0.96556126    -0.18300
C1558       C  0.67573709  0.68802720  0.94642464    -0.18300
H1559       H  0.85450763  0.71077496  0.98773503     0.14600
H1560       H  0.85511943  0.77837343  0.99871615     0.14600
H1561       H  0.62503789  0.71135270  0.00968914     0.14600
H1562       H  0.62574917  0.77920966  0.02037271     0.14600
H1563       H  0.76679778  0.62534259  0.89789525     0.12900
H1564       H  0.69968241  0.62608188  0.90209613     0.12900
H1565       H  0.76979974  0.87810934  0.93092802     0.12900
H1566       H  0.70277014  0.87857421  0.93499102     0.12900
H1567       H  0.76665217  0.75237089  0.92055640     0.26100
H1568       H  0.70311736  0.75291246  0.92561015     0.26100
C1569       C  0.54798894  0.75027129  0.28490952     0.86500
C1570       C  0.54124139  0.71959379  0.25251617    -0.59400
C1571       C  0.01100529  0.71941621  0.23118468     0.09400
C1572       C  0.98910979  0.75240907  0.24092000     0.20300
C1573       C  0.54293994  0.78265018  0.25509521    -0.54500
C1574       C  0.01191284  0.78475096  0.23072721     0.09500
C1575       C  0.01681424  0.75151737  0.31666605    -0.54000
C1576       C  0.98581349  0.75221380  0.29416124     0.10000
H1577       H  0.55798307  0.69747718  0.24976844     0.14600
H1578       H  0.96415868  0.75250850  0.22288567     0.00300
H1579       H  0.56224671  0.80266606  0.25287404     0.14900
H1580       H  0.01910101  0.75058622  0.35401974     0.14700
C1581       C  0.71156575  0.99797848  0.21919968     0.86500
C1582       C  0.71532233  0.96530428  0.24893168    -0.53800
C1583       C  0.74381360  0.96394351  0.27615260     0.09400
C1584       C  0.76640692  0.99708704  0.27167732     0.20300
C1585       C  0.70824454  0.52813226  0.25867675    -0.54500
C1586       C  0.73751193  0.52968050  0.28445559     0.09500
C1587       C  0.74551047  0.00000227  0.19229442    -0.54000
C1588       C  0.77412738  0.99934688  0.21979365     0.10000
H1589       H  0.69687352  0.94440193  0.24770298     0.14600
H1590       H  0.78979337  0.99669398  0.29335450     0.00300
H1591       H  0.68851576  0.54767918  0.26043368     0.14900
H1592       H  0.74763267  0.00217492  0.15521748     0.14700
C1593       C  0.54354120  0.75446686  0.71986781     0.86500
C1594       C  0.54171762  0.78374560  0.75490673    -0.53800
C1595       C  0.01222193  0.78257022  0.77891322     0.09400
C1596       C  0.99006987  0.74939130  0.77370814     0.20300
C1597       C  0.53991275  0.72099607  0.74785426    -0.54500
C1598       C  0.01395457  0.71749202  0.78095114     0.09500
C1599       C  0.00920126  0.74885058  0.69424128    -0.54000
C1600       C  0.98120721  0.74843945  0.72199262     0.10000
H1601       H  0.56072525  0.80411233  0.75661553     0.14600
H1602       H  0.96727919  0.74949867  0.79563577     0.00300
H1603       H  0.55758126  0.69985923  0.74312702     0.14900
H1604       H  0.00627886  0.74853682  0.65708192     0.14700
C1605       C  0.70009908  0.99794366  0.78082837     0.86500
C1606       C  0.70729231  0.52719366  0.75176473    -0.53800
C1607       C  0.73779685  0.52791892  0.73018384     0.09400
C1608       C  0.75791333  0.99828760  0.73661232     0.20300
C1609       C  0.70620251  0.96561912  0.75123881    -0.54500
C1610       C  0.73645731  0.96479687  0.72890169     0.09500
C1611       C  0.73218497  0.99955938  0.81261950    -0.54000
C1612       C  0.76253029  0.99993902  0.78938554     0.10000
H1613       H  0.68918564  0.54833513  0.74870882     0.14600
H1614       H  0.78231583  0.99863446  0.71789683     0.00300
H1615       H  0.68912173  0.94374676  0.74973098     0.14900
H1616       H  0.73095300  0.00031988  0.84999894     0.14700
C1617       C  0.61489054  0.99827562  0.19075973    -0.21300
C1618       C  0.61391766  0.99967653  0.14231669    -0.09400
C1619       C  0.64555600  0.99993459  0.11913675     0.29500
C1620       C  0.67640509  0.99933689  0.14339800    -0.21300
C1621       C  0.67762513  0.99835919  0.19178898    -0.09400
C1622       C  0.64615586  0.99752918  0.21513677     0.29500
F1623       F  0.63944670  0.49950376  0.26633220    -0.19900
H1624       H  0.59147689  0.99769928  0.20988512     0.17800
H1625       H  0.69912767  0.99951226  0.12317184     0.17900
F1626       F  0.64734849  0.00081585  0.07234856    -0.19900
C1627       C  0.80921045  0.52816850  0.16597928    -0.21300
C1628       C  0.80912144  0.00228610  0.20083095    -0.09400
C1629       C  0.83317152  0.97563790  0.20719019     0.29500
C1630       C  0.86456665  0.97697854  0.18448237    -0.21300
C1631       C  0.87258540  0.00510374  0.15558121    -0.09400
C1632       C  0.84036447  0.52944957  0.14341244     0.29500
F1633       F  0.84359505  0.55147724  0.10716668    -0.19900
H1634       H  0.78888794  0.54492879  0.15391812     0.17800
H1635       H  0.88170319  0.95511247  0.18724654     0.17900
F1636       F  0.82535389  0.94720718  0.23268733    -0.19900
C1637       C  0.01471985  0.84988406  0.21863746    -0.21300
C1638       C  0.00195429  0.81724662  0.20441994    -0.09400
C1639       C  0.48282605  0.81826291  0.16778016     0.29500
C1640       C  0.47743645  0.84895408  0.14263247    -0.21300
C1641       C  0.99060554  0.87883343  0.15081619    -0.09400
C1642       C  0.00949242  0.88008900  0.19214578     0.29500
F1643       F  0.02477054  0.90996848  0.20556693    -0.19900
H1644       H  0.02958724  0.85210644  0.25012332     0.17800
H1645       H  0.46328833  0.84739443  0.11042570     0.17900
F1646       F  0.47063636  0.78825934  0.15029196    -0.19900
C1647       C  0.97730214  0.65826247  0.13718239    -0.21300
C1648       C  0.98960192  0.62560618  0.15215877    -0.09400
C1649       C  0.49875240  0.62523354  0.19550356     0.29500
C1650       C  0.50394610  0.65522173  0.22222523    -0.21300
C1651       C  0.00019837  0.68703363  0.20567865    -0.09400
C1652       C  0.98228838  0.68841240  0.16353940     0.29500
F1653       F  0.97110070  0.71904917  0.14634083    -0.19900
H1654       H  0.96436106  0.66072401  0.10414491     0.17800
H1655       H  0.51300492  0.65222450  0.25746634     0.17900
F1656       F  0.50500133  0.59380824  0.21505071    -0.19900
C1657       C  0.65619469  0.86647237  0.00330220    -0.21300
C1658       C  0.64986579  0.83827076  0.97399679    -0.09400
C1659       C  0.61755742  0.83449046  0.95346413     0.29500
C1660       C  0.59212688  0.85849620  0.96227796    -0.21300
C1661       C  0.59882138  0.88716582  0.99045506    -0.09400
C1662       C  0.63110629  0.89119627  0.01073881     0.29500
F1663       F  0.63818864  0.91870246  0.03825387    -0.19900
H1664       H  0.68067736  0.86943134  0.02019909     0.17800
H1665       H  0.56747049  0.85528252  0.94589501     0.17900
F1666       F  0.61073459  0.80776692  0.92448867    -0.19900
C1667       C  0.81935170  0.86039307  0.00419200    -0.21300
C1668       C  0.82358411  0.83772639  0.96697542    -0.09400
C1669       C  0.85357551  0.83870811  0.94142019     0.29500
C1670       C  0.87904571  0.86208011  0.95317634    -0.21300
C1671       C  0.87449279  0.88518558  0.98976251    -0.09400
C1672       C  0.84455316  0.88433517  0.01528345     0.29500
F1673       F  0.84003078  0.90621318  0.05121844    -0.19900
H1674       H  0.79656272  0.85936756  0.02467187     0.17800
H1675       H  0.90191623  0.86291192  0.93280477     0.17900
F1676       F  0.85805620  0.81715460  0.90510970    -0.19900
C1677       C  0.87640539  0.63436627  0.93697626    -0.21300
C1678       C  0.87146895  0.61303654  0.97576542    -0.09400
C1679       C  0.84051648  0.61430121  0.99906219     0.29500
C1680       C  0.81510231  0.63697559  0.98426806    -0.21300
C1681       C  0.82019495  0.65863692  0.94601837    -0.09400
C1682       C  0.85087042  0.65703031  0.92203822     0.29500
F1683       F  0.85645435  0.67831091  0.88544363    -0.19900
H1684       H  0.89998038  0.63334005  0.91821032     0.17800
H1685       H  0.79194423  0.63879372  0.00387385     0.17900
F1686       F  0.83547425  0.59484625  0.03739754    -0.19900
C1687       C  0.61721502  0.66525391  0.93520236    -0.21300
C1688       C  0.65002776  0.66074449  0.95352248    -0.09400
C1689       C  0.65679453  0.63292641  0.98365815     0.29500
C1690       C  0.63094123  0.61006300  0.99541924    -0.21300
C1691       C  0.59783022  0.61520222  0.97837732    -0.09400
C1692       C  0.59113182  0.64291551  0.94789238     0.29500
F1693       F  0.55959298  0.64813716  0.92985918    -0.19900
H1694       H  0.61164986  0.68685575  0.91228733     0.17800
H1695       H  0.63663599  0.58872004  0.01869552     0.17900
F1696       F  0.68801893  0.62874850  0.00317253    -0.19900
C1697       C  0.82338544  0.98038874  0.79885544    -0.21300
C1698       C  0.79679071  0.00242105  0.81227074    -0.09400
C1699       C  0.80533100  0.52383852  0.84749890     0.29500
C1700       C  0.83721513  0.52559576  0.86932955    -0.21300
C1701       C  0.86256756  0.50083049  0.86070287    -0.09400
C1702       C  0.85540773  0.98162449  0.82100884     0.29500
F1703       F  0.87938680  0.95804555  0.80970313    -0.19900
H1704       H  0.81895055  0.96123956  0.77226267     0.17800
H1705       H  0.84197055  0.54613244  0.89395147     0.17900
F1706       F  0.78200972  0.54877140  0.85612253    -0.19900
C1707       C  0.62861639  0.02746545  0.86194890    -0.21300
C1708       C  0.60282361  0.50335735  0.85323736    -0.09400
C1709       C  0.60786292  0.47776335  0.81986970     0.29500
C1710       C  0.63920149  0.47501415  0.79729025    -0.21300
C1711       C  0.66554142  0.99962918  0.80574742    -0.09400
C1712       C  0.65960776  0.02569323  0.83869002     0.29500
F1713       F  0.68399333  0.04938082  0.84896241    -0.19900
H1714       H  0.62564511  0.04682184  0.88856113     0.17800
H1715       H  0.64111000  0.45487737  0.77192034     0.17900
F1716       F  0.58312770  0.45420973  0.81074006    -0.19900
C1717       C  0.46428369  0.64579124  0.84001762    -0.21300
C1718       C  0.99303093  0.62056456  0.85353386    -0.09400
C1719       C  0.02636574  0.63142324  0.84536004     0.29500
C1720       C  0.03271685  0.66319342  0.82351714    -0.21300
C1721       C  0.00599972  0.68487456  0.80791174    -0.09400
C1722       C  0.47054279  0.67700685  0.81594794     0.29500
F1723       F  0.44385425  0.69814448  0.80673909    -0.19900
H1724       H  0.43900073  0.64062665  0.85247047     0.17800
H1725       H  0.05890139  0.67094485  0.81963675     0.17900
F1726       F  0.05297080  0.61190826  0.86049043    -0.19900
C1727       C  0.48143429  0.84310389  0.87661982    -0.21300
C1728       C  0.98842436  0.87641819  0.85507178    -0.09400
C1729       C  0.00257938  0.87826058  0.81088176     0.29500
C1730       C  0.00932095  0.84782166  0.78618766    -0.21300
C1731       C  0.00227063  0.81464980  0.80473164    -0.09400
C1732       C  0.48794579  0.81305506  0.85111941     0.29500
F1733       F  0.48015823  0.78169713  0.86959504    -0.19900
H1734       H  0.46998502  0.84020185  0.91021398     0.17800
H1735       H  0.02051568  0.85032544  0.75241295     0.17900
F1736       F  0.01143123  0.90926620  0.79230285    -0.19900
C1737       C  0.88931896  0.77057305  0.68965149    -0.21300
C1738       C  0.87983702  0.74176206  0.66291999    -0.09400
C1739       C  0.90298150  0.71408440  0.65935211     0.29500
C1740       C  0.93556871  0.71625462  0.67915228    -0.21300
C1741       C  0.94567774  0.74575481  0.70379899    -0.09400
C1742       C  0.92184362  0.77243542  0.71036066     0.29500
F1743       F  0.93074129  0.80124166  0.73428807    -0.19900
H1744       H  0.87234165  0.79252157  0.69216366     0.17800
H1745       H  0.95320021  0.69504622  0.67461797     0.17900
F1746       F  0.89438837  0.68533780  0.63513697    -0.19900
C1747       C  0.57811011  0.76299590  0.64568297    -0.21300
C1748       C  0.57713882  0.75566122  0.69311966    -0.09400
C1749       C  0.60860906  0.75011196  0.71641136     0.29500
C1750       C  0.63935328  0.74887518  0.69215946    -0.21300
C1751       C  0.63979159  0.75410507  0.64422907    -0.09400
C1752       C  0.60867207  0.76260482  0.62173443     0.29500
F1753       F  0.60739240  0.77093964  0.57613311    -0.19900
H1754       H  0.55544762  0.76959879  0.62639196     0.17800
H1755       H  0.66268970  0.74329146  0.71084264     0.17900
F1756       F  0.60960141  0.74533915  0.76285055    -0.19900
C1757       C  0.75521800  0.62292575  0.69986312    -0.21300
C1758       C  0.75757121  0.62160196  0.65147576    -0.09400
C1759       C  0.75687622  0.58820500  0.63057261     0.29500
C1760       C  0.75286252  0.55795693  0.65685580    -0.21300
C1761       C  0.74876899  0.55958578  0.70445490    -0.09400
C1762       C  0.75066435  0.59232312  0.72606064     0.29500
F1763       F  0.74744422  0.59472014  0.77252266    -0.19900
H1764       H  0.75600532  0.64764573  0.71734661     0.17800
H1765       H  0.75114493  0.53319425  0.63951272     0.17900
F1766       F  0.75868670  0.58428133  0.58413841    -0.19900
C1767       C  0.74671694  0.86850696  0.69788124    -0.21300
C1768       C  0.76039411  0.87031759  0.65343700    -0.09400
C1769       C  0.77011680  0.90355826  0.63672237     0.29500
C1770       C  0.76389723  0.93384725  0.66215927    -0.21300
C1771       C  0.74790639  0.93218466  0.70498779    -0.09400
C1772       C  0.74073993  0.89884857  0.72344217     0.29500
F1773       F  0.72766926  0.89544075  0.76634571    -0.19900
H1774       H  0.73946042  0.84368010  0.71230725     0.17800
H1775       H  0.77030794  0.95879560  0.64732724     0.17900
F1776       F  0.78507278  0.90710924  0.59500471    -0.19900
C1777       C  0.87018710  0.60332872  0.47427103    -0.21300
C1778       C  0.87609165  0.63256444  0.50182602    -0.09400
C1779       C  0.90815260  0.63741870  0.52259148     0.29500
C1780       C  0.93394258  0.61350206  0.51550327    -0.21300
C1781       C  0.92829650  0.58492315  0.48690614    -0.09400
C1782       C  0.89620502  0.57977379  0.46647864     0.29500
F1783       F  0.89026962  0.55216112  0.43864040    -0.19900
H1784       H  0.84576760  0.59930400  0.45758943     0.17800
H1785       H  0.95836198  0.61722231  0.53231012     0.17900
F1786       F  0.91451548  0.66513823  0.54992430    -0.19900
C1787       C  0.62240206  0.63397845  0.51170861    -0.21300
C1788       C  0.65180769  0.63358355  0.48507969    -0.09400
C1789       C  0.65495442  0.60952778  0.44916132     0.29500
C1790       C  0.62884713  0.58601650  0.44027662    -0.21300
C1791       C  0.59972172  0.58595577  0.46757392    -0.09400
C1792       C  0.59670946  0.60994685  0.50359325     0.29500
F1793       F  0.56941122  0.60939248  0.53171928    -0.19900
H1794       H  0.61970923  0.65246465  0.53943769     0.17800
H1795       H  0.63148677  0.56745377  0.41262671     0.17900
F1796       F  0.68279454  0.60938463  0.42203428    -0.19900
C1797       C  0.62568114  0.90355373  0.44121356    -0.21300
C1798       C  0.59931932  0.90636540  0.47294403    -0.09400
C1799       C  0.59892653  0.88505110  0.51236710     0.29500
C1800       C  0.62466904  0.86087593  0.51964736    -0.21300
C1801       C  0.65126194  0.85847904  0.48825124    -0.09400
C1802       C  0.65165277  0.87969386  0.44882220     0.29500
F1803       F  0.67661208  0.87659215  0.41722412    -0.19900
H1804       H  0.62613075  0.92000438  0.41080685     0.17800
H1805       H  0.62419455  0.84439796  0.55003910     0.17900
F1806       F  0.57404831  0.88819947  0.54406098    -0.19900
C1807       C  0.86902030  0.88710512  0.46589757    -0.21300
C1808       C  0.87466776  0.86239080  0.50084123    -0.09400
C1809       C  0.90534067  0.86242009  0.52586199     0.29500
C1810       C  0.93022044  0.88689697  0.51556437    -0.21300
C1811       C  0.92493106  0.91092834  0.47961240    -0.09400
C1812       C  0.89410510  0.91096736  0.45491238     0.29500
F1813       F  0.88854889  0.93377581  0.41977723    -0.19900
H1814       H  0.84559326  0.88710094  0.44591371     0.17800
H1815       H  0.95370517  0.88706304  0.53536650     0.17900
F1816       F  0.91098390  0.83913736  0.56039732    -0.19900
C1817       C  0.62161986  0.77643278  0.36634138    -0.21300
C1818       C  0.64861476  0.75510146  0.35256807    -0.09400
C1819       C  0.64344374  0.73338794  0.31448054     0.29500
C1820       C  0.61126953  0.73149044  0.29286969    -0.21300
C1821       C  0.58325694  0.75101678  0.30890606    -0.09400
C1822       C  0.58970640  0.77480662  0.34472781     0.29500
F1823       F  0.56499658  0.79646013  0.35939136    -0.19900
H1824       H  0.62500581  0.79389854  0.39521302     0.17800
H1825       H  0.60894614  0.71485155  0.26322426     0.17900
F1826       F  0.66891210  0.71284687  0.29942461    -0.19900
C1827       C  0.89329336  0.76909018  0.32926897    -0.21300
C1828       C  0.88948678  0.74641818  0.36707134    -0.09400
C1829       C  0.91762462  0.72574967  0.38026270     0.29500
C1830       C  0.94840268  0.72779213  0.35647466    -0.21300
C1831       C  0.95241906  0.75059621  0.31894971    -0.09400
C1832       C  0.92440518  0.77136504  0.30563826     0.29500
F1833       F  0.92756942  0.79515318  0.27130384    -0.19900
H1834       H  0.87261394  0.78609093  0.31919361     0.17800
H1835       H  0.96921944  0.71124578  0.36740841     0.17900
F1836       F  0.91541581  0.70334198  0.41641592    -0.19900
C1837       C  0.74514473  0.89842978  0.28528934    -0.21300
C1838       C  0.75229988  0.93165472  0.30347935    -0.09400
C1839       C  0.76521984  0.93345584  0.34869642     0.29500
C1840       C  0.77002943  0.90326211  0.37517051    -0.21300
C1841       C  0.76200006  0.87009140  0.35766434    -0.09400
C1842       C  0.74978840  0.86807097  0.31191906     0.29500
F1843       F  0.74081520  0.83706610  0.29354747    -0.19900
H1844       H  0.73532959  0.89592219  0.25040464     0.17800
H1845       H  0.77937718  0.90609952  0.41024997     0.17900
F1846       F  0.77127878  0.96449164  0.36862511    -0.19900
C1847       C  0.77501852  0.59254515  0.37370533    -0.21300
C1848       C  0.76182767  0.62481130  0.35886981    -0.09400
C1849       C  0.74167016  0.62561203  0.31867700     0.29500
C1850       C  0.73466292  0.59491599  0.29452946    -0.21300
C1851       C  0.74686264  0.56230977  0.31019568    -0.09400
C1852       C  0.76763730  0.56178388  0.34997706     0.29500
F1853       F  0.77955068  0.53154021  0.36762217    -0.19900
H1854       H  0.79029489  0.59090348  0.40497343     0.17800
H1855       H  0.71929068  0.59691712  0.26346021     0.17900
F1856       F  0.72701165  0.65563256  0.30417891    -0.19900
loop_ 
_geom_bond_atom_site_label_1 
_geom_bond_atom_site_label_2 
_geom_bond_distance 
_geom_bond_site_symmetry_2 
_ccdc_geom_bond_type 
O1           C12   1.305       .  A
O1          Eu37   2.534       .  S
O2           C13   1.306       .  A
O2          Eu36   2.537       .  S
O3           C14   1.288       .  A
O3           Eu9   2.448       .  S
O4           C15   1.289       .  A
O4           Eu9   2.454       .  S
O5           C15   1.284       .  A
O5          Eu39   2.426       .  S
O6           C14   1.284       .  A
O6          Eu38   2.423       .  S
O7           C13   1.288       .  A
O7           Eu9   2.433       .  S
O8           C12   1.288       .  A
O8           Eu9   2.436       .  S
Eu9          O19   2.347       .  S
Eu9          O11   2.338       .  S
Eu9          O10   2.358       .  S
Eu9          O17   2.357       .  S
O10         Eu39   2.343       .  S
O10         Eu36   2.384       .  S
O11         Eu37   2.366       .  S
O11         Eu38   2.337       .  S
C12         C456   1.502       .  S
C13         C366   1.500       .  S
C14         C386   1.464       .  S
C15         C396   1.462       .  S
H16          O17   0.964       .  S
O17         Eu38   2.346       .  S
O17         Eu36   2.393       .  S
H18          O19   0.968       .  S
O19         Eu37   2.368       .  S
O19         Eu39   2.341       .  S
O20          C43   1.307       .  A
O20         Eu36   2.544       .  S
O21          C44   1.302       .  A
O21         Eu37   2.520       .  S
O22          C45   1.289       .  A
O22         Eu38   2.440       .  S
O23          C46   1.283       .  A
O23         Eu39   2.412       .  S
O24          C47   1.284       .  A
O24         Eu39   2.420       .  S
O25          C48   1.290       .  A
O25         Eu38   2.449       .  S
O26          C49   1.286       .  A
O26         Eu40   2.431       .  S
O27          C50   1.287       .  A
O27         Eu40   2.442       .  S
O28          C49   1.282       .  A
O28         Eu38   2.410       .  S
O29          C50   1.283       .  A
O29         Eu39   2.419       .  S
O30          C45   1.305       .  A
O30         Eu36   2.542       .  S
O31          C48   1.302       .  A
O31         Eu37   2.523       .  S
O32          C47   1.305       .  A
O32         Eu37   2.536       .  S
O33          C46   1.306       .  A
O33         Eu36   2.548       .  S
O34          C43   1.289       .  A
O34         Eu40   2.440       .  S
O35          C44   1.288       .  A
O35         Eu40   2.435       .  S
Eu36         O54   2.376       .  S
Eu36         O42   2.375       .  S
Eu37         O41   2.367       .  S
Eu37         O52   2.380       .  S
Eu38         O52   2.346       .  S
Eu38         O42   2.344       .  S
Eu39         O41   2.342       .  S
Eu39         O54   2.343       .  S
Eu40         O41   2.343       .  S
Eu40         O52   2.348       .  S
Eu40         O54   2.347       .  S
Eu40         O42   2.347       .  S
C43         C376   1.509       .  S
C44         C449   1.495       .  S
C45         C346   1.504       .  S
C46         C359   1.509       .  S
C47         C426   1.491       .  S
C48         C436   1.496       .  S
C49         C416   1.458       .  S
C50         C409   1.455       .  S
H51          O52   0.966       .  S
H53          O54   0.966       .  S
N55          H87   1.043       .  S
N55          C59   1.351       .  A
N55         C524   1.351       .  A
N56          C64   1.343       .  A
N56         C991   1.341       .  A
N57          H88   1.043       .  S
N57          C61   1.346       .  A
N57         C526   1.346       .  A
N58          C66   1.345       .  A
N58         C993   1.345       .  A
C59          C67   1.387       .  A
C59          C75   1.410       .  A
C60         N519   1.352   1_545  A
C60          C76   1.412       .  A
C60          C68   1.388       .  A
C61          C69   1.388       .  A
C61          C78   1.404       .  A
C62         N521   1.349   1_545  A
C62          C77   1.406       .  A
C62          C70   1.387       .  A
C63         N984   1.342       .  A
C63          C75   1.401       .  A
C63          C71   1.387       .  A
C64          C78   1.404       .  A
C64          C72   1.388       .  A
C65         N986   1.347       .  A
C65          C73   1.386       .  A
C65          C76   1.406       .  A
C66          C74   1.387       .  A
C66          C77   1.404       .  A
C67         C532   1.373       .  A
C67          H79   1.082       .  S
C68         C531   1.370   1_545  A
C68          H80   1.082       .  S
C69         C534   1.374       .  A
C69          H81   1.082       .  S
C70         C533   1.370   1_545  A
C70          H82   1.082       .  S
C71        C1000   1.376   1_455  A
C71          H83   1.083       .  S
C72         C999   1.376       .  A
C72          H84   1.082       .  S
C73        C1002   1.373   1_455  A
C73          H85   1.082       .  S
C74        C1001   1.373       .  A
C74          H86   1.083       .  S
C75         C406   1.471       .  S
C76         C399   1.478       .  S
C77         C389   1.471       .  S
C78         C419   1.469       .  S
O89         C100   1.305       .  A
O89        Eu589   2.532       .  S
O90         C101   1.306       .  A
O90        Eu124   2.539       .  S
O91         C102   1.287       .  A
O91       Eu1025   2.439   1_455  S
O92         C103   1.283       .  A
O92         Eu97   2.419       .  S
O93         C103   1.286       .  A
O93        Eu127   2.437       .  S
O94         C102   1.285       .  A
O94        Eu126   2.434       .  S
O95         C101   1.288       .  A
O95         Eu97   2.435       .  S
O96         C100   1.288       .  A
O96         Eu97   2.439   1_556  S
Eu97       O1019   2.436       .  S
Eu97        O107   2.344   1_554  S
Eu97         O98   2.352       .  S
Eu97       O1027   2.343   1_554  S
Eu97       O1033   2.346       .  S
O98        Eu127   2.345       .  S
O98        Eu124   2.378       .  S
O99        Eu126   2.346   1_556  S
O99       Eu1025   2.346   1_456  S
O99       Eu1517   2.371   1_455  S
C100        C336   1.506       .  S
C101        C249   1.502       .  S
C102        C269   1.460       .  S
C103        C279   1.454       .  S
H104        O105   0.967       .  S
O105       Eu126   2.342       .  S
O105      Eu1025   2.350   1_455  S
O105      Eu1052   2.375   1_455  S
H106        O107   0.965       .  S
O107       Eu127   2.351   1_556  S
O107       Eu589   2.372       .  S
O108        C131   1.307       .  A
O108       Eu588   2.544       .  S
O109        C132   1.305       .  A
O109       Eu125   2.532   1_545  S
O110        C133   1.284       .  A
O110       Eu126   2.414       .  S
O111        C134   1.289       .  A
O111       Eu127   2.440       .  S
O112        C135   1.288       .  A
O112       Eu591   2.441   1_556  S
O113        C136   1.285       .  A
O113       Eu590   2.424       .  S
O114        C137   1.287       .  A
O114      Eu1056   2.438   1_455  S
O115        C138   1.287       .  A
O115       Eu128   2.444   1_556  S
O116        C137   1.284       .  A
O116       Eu590   2.420       .  S
O117        C138   1.283   1_554  A
O117       Eu591   2.420   1_545  S
O118        C133   1.306       .  A
O118      Eu1052   2.544   1_455  S
O119        C136   1.305       .  A
O119      Eu1053   2.537   1_445  S
O120        C135   1.306       .  A
O120       Eu125   2.541       .  S
O121        C134   1.306       .  A
O121       Eu124   2.544       .  S
O122        C131   1.287       .  A
O122       Eu128   2.432       .  S
O123        C132   1.287       .  A
O123       Eu128   2.433   1_556  S
Eu124       O572   2.529       .  S
Eu124      O1046   2.548       .  S
Eu124      O1033   2.379       .  S
Eu124       O606   2.393       .  S
Eu124      O1522   2.387       .  S
Eu125       O553   2.521       .  S
Eu125      O1047   2.541       .  S
Eu125       O129   2.368   1_565  S
Eu125      O1491   2.367       .  S
Eu125       O571   2.378       .  S
Eu125      O1068   2.363   1_565  S
Eu126       O577   2.437   1_554  S
Eu126       O580   2.427       .  S
Eu126       O604   2.335   1_554  S
Eu126       O594   2.347       .  S
Eu127       O576   2.440   1_554  S
Eu127       O581   2.429   1_554  S
Eu127       O593   2.342   1_554  S
Eu127       O606   2.355       .  S
Eu128      O1042   2.444   1_554  S
Eu128       O129   2.339   1_554  S
Eu128       O142   2.349       .  S
Eu128      O1068   2.345   1_554  S
Eu128      O1058   2.354       .  S
O129       Eu591   2.343   1_546  S
O130      Eu1516   2.366   1_455  S
O130       Eu590   2.346   1_554  S
O130      Eu1056   2.352   1_454  S
C131        C256   1.507       .  S
C132        C326   1.491       .  S
C133        C226   1.504       .  S
C134        C239   1.504       .  S
C135        C309   1.499   1_565  S
C136        C316   1.493       .  S
C137        C299   1.458       .  S
C138        C286   1.462       .  S
H139        O140   0.965       .  S
O140      Eu1053   2.361   1_445  S
O140       Eu590   2.340       .  S
O140      Eu1056   2.345   1_455  S
H141        O142   0.966       .  S
O142       Eu588   2.386       .  S
O142       Eu591   2.354   1_545  S
N143        H175   1.042       .  S
N143        C148   1.349       .  A
N143        C147   1.349       .  A
N144        C151   1.345       .  A
N144        C152   1.345       .  A
N145        H176   1.042       .  S
N145        C150   1.348       .  A
N145        C149   1.348       .  A
N146        C153   1.346       .  A
N146        C154   1.347       .  A
C147        C155   1.388   1_556  A
C147        C163   1.410       .  A
C148        C164   1.407       .  A
C148        C156   1.386   1_556  A
C149        C157   1.388   1_556  A
C149        C166   1.407       .  A
C150        C165   1.405       .  A
C150        C158   1.386   1_556  A
C151        C163   1.404       .  A
C151        C159   1.386       .  A
C152        C166   1.404       .  A
C152        C160   1.387       .  A
C153        C161   1.387       .  A
C153        C164   1.405       .  A
C154        C162   1.385       .  A
C154        C165   1.404       .  A
C155        C156   1.373       .  A
C155        H167   1.082       .  S
C156        H168   1.082       .  S
C157        C158   1.373       .  A
C157        H169   1.082       .  S
C158        H170   1.082       .  S
C159        C160   1.375       .  A
C159        H171   1.082       .  S
C160        H172   1.082       .  S
C161        C162   1.373       .  A
C161        H173   1.082       .  S
C162        H174   1.082       .  S
C163        C289   1.474       .  S
C164        C276   1.475       .  S
C165        C266   1.476       .  S
C166        C296   1.472       .  S
C177        C178   1.533       .  S
C177        C181   1.533       .  S
C177       C1111   1.554       .  S
C177        C429   1.553       .  S
C178        H185   1.081       .  S
C178       C1107   1.360       .  D
C179        C180   1.563       .  S
C179       C1106   1.363       .  D
C179        C259   1.509       .  S
C180        C184   1.545       .  S
C180        C182   1.568       .  S
C180        H186   1.107       .  S
C181        H187   1.086       .  S
C181       C1110   1.369       .  D
C182       C1109   1.367       .  D
C182        C246   1.516       .  S
C183       C1105   1.554       .  S
C183        H188   1.085       .  S
C183        C184   1.380       .  D
C184        C439   1.507       .  S
C189        C190   1.529       .  S
C189        C195   1.561       .  S
C189        C657   1.524       .  S
C189        C229   1.549       .  S
C190        H197   1.085       .  S
C190        C191   1.371       .  D
C191        C192   1.564       .  S
C191        C446   1.510       .  S
C192        C196   1.540       .  S
C192        C658   1.560       .  S
C192        H198   1.106       .  S
C193        C653   1.532   1_545  S
C193        H199   1.086       .  S
C193        C194   1.369       .  D
C194        C656   1.563   1_545  S
C194        C459   1.512       .  S
C195        H200   1.083       .  S
C195        C196   1.379       .  D
C196        C236   1.510       .  S
C201        C202   1.530       .  S
C201        C205   1.531       .  S
C201       C1135   1.561       .  S
C201        C356   1.553       .  S
C202        H209   1.086       .  S
C202       C1131   1.370       .  D
C203        C204   1.563       .  S
C203       C1130   1.370       .  D
C203        C339   1.508       .  S
C204        C208   1.535       .  S
C204        C206   1.570       .  S
C204        H210   1.102       .  S
C205        H211   1.084       .  S
C205       C1134   1.369       .  D
C206       C1133   1.372       .  D
C206        C329   1.530       .  S
C207       C1129   1.558       .  S
C207        H212   1.083       .  S
C207        C208   1.376       .  D
C208        C349   1.505       .  S
C213        C219   1.557       .  S
C213        C217   1.543       .  S
C213        C678   1.530       .  S
C213        C319   1.555       .  S
C214        C677   1.527   1_545  S
C214        H221   1.086       .  S
C214        C215   1.366       .  D
C215        C680   1.562   1_545  S
C215        C369   1.510       .  S
C216        C220   1.539       .  S
C216        C218   1.555       .  S
C216        C679   1.558       .  S
C216        H222   1.111       .  S
C217        H223   1.081       .  S
C217        C218   1.366       .  D
C218        C379   1.508       .  S
C219        H224   1.085       .  S
C219        C220   1.381       .  D
C220        C306   1.499       .  S
C225        C226   1.405       .  A
C225        C230   1.415       .  A
C225        H232   1.083       .  S
C226        C227   1.416       .  A
C227        C228   1.397       .  A
C227        F234   1.358       .  S
C228        C229   1.404       .  A
C228        H233   1.079       .  S
C229        C230   1.424       .  A
C230        F695   1.357       .  S
F231        C694   1.357       .  S
C235        C240   1.405       .  A
C235        C700   1.403       .  A
C235        H242   1.083       .  S
C236        C237   1.418       .  A
C236        C699   1.403       .  A
C237        C238   1.417       .  A
C237        F244   1.356       .  S
C238        C239   1.407       .  A
C238        H243   1.083       .  S
C239        C704   1.412       .  A
C240        C703   1.409       .  A
C240        F241   1.357       .  S
C245        C246   1.420       .  A
C245        C250   1.410       .  A
C245        H252   1.082       .  S
C246       C1175   1.405       .  A
C247        C248   1.407       .  A
C247       C1174   1.406   1_655  A
C247        F254   1.354       .  S
C248       C1177   1.414       .  A
C248        H253   1.083       .  S
C249        C250   1.405       .  A
C249       C1176   1.413       .  A
C250        F251   1.358       .  S
C255        C256   1.419       .  A
C255        C260   1.408       .  A
C255        H262   1.083       .  S
C256       C1185   1.405       .  A
C257        C258   1.407       .  A
C257       C1184   1.407       .  A
C257        F264   1.357   1_655  S
C258       C1187   1.413       .  A
C258        H263   1.083   1_655  S
C259        C260   1.402       .  A
C259       C1186   1.416       .  A
C260        F261   1.356       .  S
C265        C266   1.403   1_554  A
C265        C270   1.395       .  A
C265        H272   1.083       .  S
C266        C267   1.404       .  A
C267        C268   1.390       .  A
C267        F274   1.358       .  S
C268        C269   1.400   1_556  A
C268        H273   1.084       .  S
C269        C270   1.405       .  A
C270        F271   1.358       .  S
C275        C276   1.405   1_554  A
C275        C280   1.392       .  A
C275        H282   1.083       .  S
C276        C277   1.404       .  A
C277        C278   1.389       .  A
C277        F284   1.358       .  S
C278        C279   1.402   1_556  A
C278        H283   1.084       .  S
C279        C280   1.401       .  A
C280        F281   1.358       .  S
C285        C286   1.402       .  A
C285        C290   1.391       .  A
C285        H292   1.082       .  S
C286        C287   1.405   1_556  A
C287        C288   1.392   1_554  A
C287        F294   1.358       .  S
C288        C289   1.402       .  A
C288        H293   1.084   1_556  S
C289        C290   1.403       .  A
C290        F291   1.358       .  S
C295        C296   1.402       .  A
C295        C300   1.391       .  A
C295        H302   1.083       .  S
C296        C297   1.404   1_556  A
C297        C298   1.390       .  A
C297        F304   1.358       .  S
C298        C299   1.402   1_554  A
C298        H303   1.084       .  S
C299        C300   1.405       .  A
C300        F301   1.358       .  S
C305        C306   1.411       .  A
C305        C310   1.414       .  A
C305        H312   1.083       .  S
C306        C771   1.404       .  A
C307        C308   1.405       .  A
C307        C770   1.407   1_545  A
C307        F314   1.358       .  S
C308        C309   1.411       .  A
C308        H313   1.084       .  S
C309        C774   1.408   1_545  A
C310        C773   1.410       .  A
C310        F311   1.357       .  S
C315        C320   1.406       .  A
C315        C780   1.409       .  A
C315        H322   1.084       .  S
C316        C317   1.403   1_545  A
C316        C779   1.409       .  A
C317        C318   1.411       .  A
C317        F324   1.357       .  S
C318        C783   1.421       .  A
C318        H323   1.078       .  S
C319        C320   1.412       .  A
C319        C782   1.421       .  A
C320        F321   1.358       .  S
C325        C330   1.405       .  A
C325       C1254   1.413       .  A
C325        H332   1.083       .  S
C326        C327   1.398       .  A
C326       C1253   1.408       .  A
C327        C328   1.403       .  A
C327        F334   1.358       .  S
C328        C329   1.424       .  A
C328        H333   1.078       .  S
C329       C1258   1.415       .  A
C330       C1257   1.407   1_655  A
C330        F331   1.354       .  S
C335        C340   1.405       .  A
C335       C1264   1.411       .  A
C335        H342   1.083       .  S
C336        C337   1.408       .  A
C336       C1263   1.416       .  A
C337        C338   1.409       .  A
C337        F344   1.357       .  S
C338        C339   1.414       .  A
C338        H343   1.083       .  S
C339       C1268   1.404       .  A
C340       C1267   1.406   1_655  A
C340        F341   1.353       .  S
C345        C346   1.409       .  A
C345        C350   1.420       .  A
C345        H352   1.083       .  S
C346        C347   1.409       .  A
C347        C348   1.396       .  A
C347        F354   1.351       .  S
C348        C349   1.399       .  A
C348        H353   1.083       .  S
C349        C350   1.418       .  A
C350        F351   1.357       .  S
C355        C356   1.404       .  A
C355        C360   1.398       .  A
C355        H362   1.078       .  S
C356        C357   1.423       .  A
C357        C358   1.415       .  A
C357        F364   1.357       .  S
C358        C359   1.405       .  A
C358        H363   1.083       .  S
C359        C360   1.420       .  A
C360        F361   1.359       .  S
C365        C366   1.401       .  A
C365        C370   1.406       .  A
C365        H372   1.083       .  S
C366        C367   1.418       .  A
C367        C368   1.407       .  A
C367        F374   1.358       .  S
C368        C369   1.402       .  A
C368        H373   1.083       .  S
C369        C370   1.421       .  A
C370        F371   1.357       .  S
C375        C376   1.405       .  A
C375        C380   1.409       .  A
C375        H382   1.083       .  S
C376        C377   1.421       .  A
C377        C378   1.408       .  A
C377        F384   1.358       .  S
C378        C379   1.401       .  A
C378        H383   1.083       .  S
C379        C380   1.417       .  A
C380        F381   1.357       .  S
C385        C386   1.403       .  A
C385        C390   1.393       .  A
C385        H392   1.083       .  S
C386        C387   1.404       .  A
C387        C388   1.389       .  A
C387        F394   1.351       .  S
C388        C389   1.399       .  A
C388        H393   1.084       .  S
C389        C390   1.403       .  A
C390        F391   1.357       .  S
C395        C396   1.402       .  A
C395        C400   1.395       .  A
C395        H402   1.084       .  S
C396        C397   1.404       .  A
C397        C398   1.393       .  A
C397        F404   1.358       .  S
C398        C399   1.401       .  A
C398        H403   1.083       .  S
C399        C400   1.406       .  A
C400        F401   1.358       .  S
C405        C406   1.400       .  A
C405        C410   1.392       .  A
C405        H412   1.083       .  S
C406        C407   1.405       .  A
C407        C408   1.391       .  A
C407        F414   1.358       .  S
C408        C409   1.400       .  A
C408        H413   1.084       .  S
C409        C410   1.403       .  A
C410        F411   1.358       .  S
C415        C416   1.400       .  A
C415        C420   1.386       .  A
C415        H422   1.084       .  S
C416        C417   1.408       .  A
C417        C418   1.389       .  A
C417        F424   1.358       .  S
C418        C419   1.400       .  A
C418        H423   1.083       .  S
C419        C420   1.404       .  A
C420        F421   1.358       .  S
C425        C426   1.408       .  A
C425        C430   1.403       .  A
C425        H432   1.084       .  S
C426        C427   1.401       .  A
C427        C428   1.409       .  A
C427        F434   1.358       .  S
C428        C429   1.423       .  A
C428        H433   1.076       .  S
C429        C430   1.410       .  A
C430        F431   1.357       .  S
C435        C436   1.407       .  A
C435        C440   1.414       .  A
C435        H442   1.083       .  S
C436        C437   1.410       .  A
C437        C438   1.401       .  A
C437        F444   1.358       .  S
C438        C439   1.405       .  A
C438        H443   1.083       .  S
C439        C440   1.416       .  A
C440        F441   1.357       .  S
C445        C446   1.417       .  A
C445        C450   1.405       .  A
C445        H452   1.082       .  S
C446        C447   1.406       .  A
C447        C448   1.403       .  A
C447        F454   1.353       .  S
C448        C449   1.411       .  A
C448        H453   1.083       .  S
C449        C450   1.404       .  A
C450        F451   1.357       .  S
C455        C456   1.414       .  A
C455        C460   1.407       .  A
C455        H462   1.083       .  S
C456        C457   1.405       .  A
C457        C458   1.406       .  A
C457        F464   1.357       .  S
C458        C459   1.416       .  A
C458        H463   1.082       .  S
C459        C460   1.406       .  A
C460        F461   1.353       .  S
O465        C476   1.307       .  A
O465       Eu501   2.546       .  S
O466        C477   1.308       .  A
O466       Eu500   2.555       .  S
O467        C478   1.286       .  A
O467       Eu473   2.434       .  S
O468        C479   1.287       .  A
O468       Eu473   2.445       .  S
O469        C479   1.284       .  A
O469       Eu503   2.427       .  S
O470        C478   1.286       .  A
O470       Eu502   2.437       .  S
O471        C477   1.284       .  A
O471       Eu473   2.417       .  S
O472        C476   1.285       .  A
O472       Eu473   2.423       .  S
Eu473       O483   2.341       .  S
Eu473       O475   2.342       .  S
Eu473       O474   2.349       .  S
Eu473       O481   2.354       .  S
O474       Eu503   2.339       .  S
O474       Eu500   2.380       .  S
O475       Eu501   2.371       .  S
O475       Eu502   2.347       .  S
C476        C920   1.501       .  S
C477        C830   1.512       .  S
C478        C850   1.464       .  S
C479        C860   1.459       .  S
H480        O481   0.963       .  S
O481       Eu502   2.350       .  S
O481       Eu500   2.386       .  S
H482        O483   0.968       .  S
O483       Eu501   2.368       .  S
O483       Eu503   2.345       .  S
O484        C507   1.308       .  A
O484       Eu500   2.550       .  S
O485        C508   1.303       .  A
O485       Eu501   2.528       .  S
O486        C509   1.287       .  A
O486       Eu502   2.434       .  S
O487        C510   1.282       .  A
O487       Eu503   2.410       .  S
O488        C511   1.283       .  A
O488       Eu503   2.405       .  S
O489        C512   1.288       .  A
O489       Eu502   2.440       .  S
O490        C513   1.284       .  A
O490       Eu504   2.417       .  S
O491        C514   1.287       .  A
O491       Eu504   2.450       .  S
O492        C513   1.286       .  A
O492       Eu502   2.437       .  S
O493        C514   1.284       .  A
O493       Eu503   2.431       .  S
O494        C509   1.304       .  A
O494       Eu500   2.534       .  S
O495        C512   1.306       .  A
O495       Eu501   2.541       .  S
O496        C511   1.304       .  A
O496       Eu501   2.531       .  S
O497        C510   1.305       .  A
O497       Eu500   2.537       .  S
O498        C507   1.287       .  A
O498       Eu504   2.432       .  S
O499        C508   1.288       .  A
O499       Eu504   2.435       .  S
Eu500       O518   2.383       .  S
Eu500       O506   2.377       .  S
Eu501       O505   2.367       .  S
Eu501       O516   2.377       .  S
Eu502       O516   2.353       .  S
Eu502       O506   2.346       .  S
Eu503       O505   2.332       .  S
Eu503       O518   2.340       .  S
Eu504       O505   2.326       .  S
Eu504       O516   2.354       .  S
Eu504       O518   2.349       .  S
Eu504       O506   2.352       .  S
C507        C840   1.511       .  S
C508        C913   1.502       .  S
C509        C810   1.489       .  S
C510        C823   1.505       .  S
C511        C890   1.486       .  S
C512        C900   1.500       .  S
C513        C880   1.455       .  S
C514        C873   1.462       .  S
H515        O516   0.966       .  S
H517        O518   0.967       .  S
N519        H551   1.041       .  S
N519        C523   1.352       .  A
N520       C1455   1.345       .  A
N520        C528   1.346       .  A
N521        H552   1.042       .  S
N521        C525   1.349       .  A
N522       C1457   1.343       .  A
N522        C530   1.345       .  A
C523        C531   1.385       .  A
C523        C539   1.409       .  A
C524        C540   1.411       .  A
C524        C532   1.387       .  A
C525        C533   1.386       .  A
C525        C542   1.405       .  A
C526        C541   1.401       .  A
C526        C534   1.386       .  A
C527       N1448   1.347       .  A
C527        C539   1.406       .  A
C527        C535   1.386       .  A
C528        C542   1.404       .  A
C528        C536   1.387       .  A
C529       N1450   1.342       .  A
C529        C537   1.387       .  A
C529        C540   1.404       .  A
C530        C538   1.386       .  A
C530        C541   1.403       .  A
C531        H543   1.082       .  S
C532        H544   1.082       .  S
C533        H545   1.082       .  S
C534        H546   1.082       .  S
C535       C1464   1.373   1_455  A
C535        H547   1.083       .  S
C536       C1463   1.374       .  A
C536        H548   1.082       .  S
C537       C1466   1.377   1_455  A
C537        H549   1.082       .  S
C538       C1465   1.376       .  A
C538        H550   1.082       .  S
C539        C870   1.478       .  S
C540        C863   1.477       .  S
C541        C853   1.469       .  S
C542        C883   1.472       .  S
O553        C564   1.303       .  A
O554        C565   1.304       .  A
O554       Eu588   2.526   1_565  S
O555        C566   1.284       .  A
O555      Eu1489   2.430   1_456  S
O556        C567   1.285       .  A
O556       Eu561   2.430       .  S
O557        C567   1.285       .  A
O557       Eu591   2.434       .  S
O558        C566   1.286       .  A
O558       Eu590   2.437   1_565  S
O559        C565   1.288       .  A
O559       Eu561   2.436       .  S
O560        C564   1.286       .  A
O560       Eu561   2.426   1_556  S
Eu561      O1483   2.436       .  S
Eu561       O571   2.349   1_554  S
Eu561      O1491   2.344   1_554  S
Eu561       O562   2.348       .  S
Eu561      O1497   2.347       .  S
O562       Eu591   2.345       .  S
O562       Eu588   2.385   1_565  S
O563      Eu1489   2.345   1_456  S
O563      Eu1053   2.369   1_455  S
O563       Eu590   2.336   1_565  S
C564        C800   1.494       .  S
C565        C713   1.498       .  S
C566        C733   1.459       .  S
C567        C743   1.457   1_554  S
H568        O569   0.967       .  S
O569      Eu1489   2.350   1_455  S
O569       Eu590   2.339   1_564  S
O569      Eu1516   2.375   1_465  S
H570        O571   0.965       .  S
O571       Eu591   2.348   1_556  S
O572        C595   1.305       .  A
O573        C596   1.304       .  A
O573       Eu589   2.533       .  S
O574        C597   1.283       .  A
O574       Eu590   2.415   1_554  S
O575        C598   1.288       .  A
O575       Eu591   2.440   1_545  S
O576        C599   1.288       .  A
O577        C600   1.287       .  A
O578        C601   1.288       .  A
O578      Eu1520   2.445   1_456  S
O579        C602   1.289       .  A
O579       Eu592   2.453       .  S
O580        C601   1.285   1_554  A
O581        C602   1.285       .  A
O582        C597   1.308       .  A
O582      Eu1516   2.557   1_455  S
O583        C600   1.305       .  A
O583      Eu1517   2.539   1_455  S
O584        C599   1.305       .  A
O584       Eu589   2.538       .  S
O585        C598   1.304       .  A
O585       Eu588   2.534       .  S
O586        C595   1.293       .  A
O586       Eu592   2.460   1_554  S
O587        C596   1.288       .  A
O587       Eu592   2.444       .  S
Eu588      O1510   2.561       .  S
Eu588      O1497   2.379   1_545  S
Eu588      O1058   2.372       .  S
Eu589      O1511   2.539       .  S
Eu589      O1027   2.365       .  S
Eu589       O593   2.374       .  S
Eu589      O1532   2.364       .  S
Eu592      O1506   2.454       .  S
Eu592       O593   2.348       .  S
Eu592      O1532   2.349       .  S
Eu592       O606   2.359   1_556  S
Eu592      O1522   2.361   1_556  S
O594      Eu1052   2.381   1_455  S
O594      Eu1520   2.358   1_455  S
C595        C720   1.510       .  S
C596        C790   1.488       .  S
C597        C690   1.514   1_545  S
C598        C703   1.490       .  S
C599        C773   1.495       .  S
C600        C780   1.498       .  S
C601        C763   1.467       .  S
C602        C750   1.467       .  S
H603        O604   0.965       .  S
O604      Eu1517   2.361   1_455  S
O604      Eu1520   2.347   1_456  S
H605        O606   0.966       .  S
N607        H639   1.042       .  S
N607        C612   1.351       .  A
N607        C611   1.350       .  A
N608        C615   1.344       .  A
N608        C616   1.346       .  A
N609        H640   1.043       .  S
N609        C614   1.347       .  A
N609        C613   1.347       .  A
N610        C617   1.345       .  A
N610        C618   1.346       .  A
C611        C619   1.389       .  A
C611        C627   1.412       .  A
C612        C628   1.407       .  A
C612        C620   1.385       .  A
C613        C621   1.390   1_556  A
C613        C630   1.408       .  A
C614        C629   1.400       .  A
C614        C622   1.384   1_556  A
C615        C627   1.406       .  A
C615        C623   1.387       .  A
C616        C630   1.407       .  A
C616        C624   1.386       .  A
C617        C625   1.385       .  A
C617        C628   1.403       .  A
C618        C626   1.386       .  A
C618        C629   1.405       .  A
C619        C620   1.371       .  A
C619        H631   1.082       .  S
C620        H632   1.082   1_556  S
C621        C622   1.373       .  A
C621        H633   1.082       .  S
C622        H634   1.082       .  S
C623        C624   1.378       .  A
C623        H635   1.083       .  S
C624        H636   1.082       .  S
C625        C626   1.374       .  A
C625        H637   1.082       .  S
C626        H638   1.082       .  S
C627        C753   1.474       .  S
C628        C740   1.478       .  S
C629        C730   1.474       .  S
C630        C760   1.476       .  S
C641        C642   1.532       .  S
C641       C1575   1.553       .  S
C641        C645   1.524       .  S
C641        C893   1.544       .  S
C642        H649   1.082       .  S
C642       C1571   1.365       .  D
C643        C644   1.561       .  S
C643       C1570   1.365       .  D
C643        C723   1.508       .  S
C644        C648   1.547       .  S
C644        C646   1.562       .  S
C644        H650   1.108       .  S
C645        H651   1.086       .  S
C645       C1574   1.366       .  D
C646       C1573   1.364       .  D
C646        C710   1.509       .  S
C647       C1569   1.554       .  S
C647        H652   1.085       .  S
C647        C648   1.380       .  D
C648        C903   1.507       .  S
C653        C654   1.530       .  S
C653        C659   1.562       .  S
C653        C693   1.552       .  S
C654        H661   1.086       .  S
C654        C655   1.367       .  D
C655        C656   1.563       .  S
C655        C910   1.510       .  S
C656        C660   1.537       .  S
C656        H662   1.109       .  S
C657        H663   1.087       .  S
C657        C658   1.364       .  D
C658        C923   1.506       .  S
C659        H664   1.082   1_565  S
C659        C660   1.375       .  D
C660        C700   1.497   1_565  S
C665        C666   1.531       .  S
C665       C1599   1.560       .  S
C665        C669   1.527       .  S
C665        C820   1.546       .  S
C666        H673   1.086       .  S
C666       C1595   1.367       .  D
C667        C668   1.554       .  S
C667       C1594   1.364       .  D
C667        C803   1.499       .  S
C668        C672   1.538       .  S
C668        C670   1.567       .  S
C668        H674   1.105       .  S
C669        H675   1.085       .  S
C669       C1598   1.370       .  D
C670       C1597   1.373       .  D
C670        C793   1.522       .  S
C671       C1593   1.557       .  S
C671        H676   1.082       .  S
C671        C672   1.374       .  D
C672        C813   1.493       .  S
C677        C683   1.557       .  S
C677        C681   1.536       .  S
C677        C783   1.549       .  S
C678        H685   1.087       .  S
C678        C679   1.363       .  D
C679        C833   1.500       .  S
C680        C684   1.542       .  S
C680        C682   1.561       .  S
C680        H686   1.110       .  S
C681        H687   1.083       .  S
C681        C682   1.365       .  D
C682        C843   1.506       .  S
C683        H688   1.085       .  S
C683        C684   1.379       .  D
C684        C770   1.504       .  S
C689        C690   1.406   1_545  A
C689        C694   1.416       .  A
C689        H696   1.083       .  S
C690        C691   1.422       .  A
C691        C692   1.399       .  A
C691        F698   1.358       .  S
C692        C693   1.403       .  A
C692        H697   1.078       .  S
C693        C694   1.422   1_565  A
C699        C704   1.400       .  A
C699        H706   1.083       .  S
C700        C701   1.409   1_545  A
C701        C702   1.412       .  A
C701        F708   1.357       .  S
C702        C703   1.407   1_565  A
C702        H707   1.083       .  S
C704        F705   1.354       .  S
C709        C710   1.418       .  A
C709        C714   1.408       .  A
C709        H716   1.083       .  S
C710       C1639   1.403       .  A
C711       C1638   1.405   1_655  A
C711        C712   1.407       .  A
C711        F718   1.353       .  S
C712       C1641   1.413       .  A
C712        H717   1.083       .  S
C713       C1640   1.412       .  A
C713        C714   1.405       .  A
C714        F715   1.357       .  S
C719        C720   1.415       .  A
C719        C724   1.407       .  A
C719        H726   1.083       .  S
C720       C1649   1.410       .  A
C721       C1648   1.406   1_455  A
C721        C722   1.407       .  A
C721        F728   1.357       .  S
C722       C1651   1.418       .  A
C722        H727   1.083       .  S
C723       C1650   1.414       .  A
C723        C724   1.402       .  A
C724        F725   1.353       .  S
C729        C730   1.401   1_554  A
C729        C734   1.390       .  A
C729        H736   1.083       .  S
C730        C731   1.407       .  A
C731        C732   1.394       .  A
C731        F738   1.359       .  S
C732        C733   1.402       .  A
C732        H737   1.084       .  S
C733        C734   1.402   1_556  A
C734        F735   1.357       .  S
C739        C740   1.404   1_554  A
C739        C744   1.393       .  A
C739        H746   1.083       .  S
C740        C741   1.405       .  A
C741        C742   1.391       .  A
C741        F748   1.358       .  S
C742        C743   1.401       .  A
C742        H747   1.084       .  S
C743        C744   1.402   1_556  A
C744        F745   1.358       .  S
C749        C750   1.404       .  A
C749        C754   1.397       .  A
C749        H756   1.082       .  S
C750        C751   1.403       .  A
C751        C752   1.389       .  A
C751        F758   1.353   1_556  S
C752        C753   1.399       .  A
C752        H757   1.084   1_556  S
C753        C754   1.404       .  A
C754        F755   1.358       .  S
C759        C760   1.404       .  A
C759        C764   1.392       .  A
C759        H766   1.084       .  S
C760        C761   1.403       .  A
C761        C762   1.392   1_556  A
C761        F768   1.357   1_556  S
C762        C763   1.404   1_554  A
C762        H767   1.083       .  S
C763        C764   1.407       .  A
C764        F765   1.358       .  S
C769        C770   1.411       .  A
C769        C774   1.413       .  A
C769        H776   1.083       .  S
C771        C772   1.402       .  A
C771        F778   1.357       .  S
C772        C773   1.409       .  A
C772        H777   1.084       .  S
C774        F775   1.357       .  S
C779        C784   1.402       .  A
C779        H786   1.084       .  S
C780        C781   1.403       .  A
C781        C782   1.410       .  A
C781        F788   1.357       .  S
C782        H787   1.077       .  S
C783        C784   1.411   1_565  A
C784        F785   1.357       .  S
C789       C1718   1.404       .  A
C789        C794   1.410       .  A
C789        H796   1.083       .  S
C790       C1717   1.406       .  A
C790        C791   1.400       .  A
C791        C792   1.402       .  A
C791        F798   1.358       .  S
C792        C793   1.418       .  A
C792        H797   1.080       .  S
C793       C1722   1.417       .  A
C794       C1721   1.415   1_655  A
C794        F795   1.355       .  S
C799       C1728   1.416       .  A
C799        C804   1.405       .  A
C799        H806   1.083       .  S
C800       C1727   1.415       .  A
C800        C801   1.404       .  A
C801        C802   1.402       .  A
C801        F808   1.357       .  S
C802        C803   1.413       .  A
C802        H807   1.083       .  S
C803       C1732   1.403       .  A
C804       C1731   1.404   1_655  A
C804        F805   1.357       .  S
C809        C810   1.408       .  A
C809        C814   1.413       .  A
C809        H816   1.083       .  S
C810        C811   1.408       .  A
C811        C812   1.401       .  A
C811        F818   1.356       .  S
C812        C813   1.401       .  A
C812        H817   1.083       .  S
C813        C814   1.410       .  A
C814        F815   1.357       .  S
C819        C820   1.403       .  A
C819        C824   1.396       .  A
C819        H826   1.076       .  S
C820        C821   1.422       .  A
C821        C822   1.412       .  A
C821        F828   1.357       .  S
C822        C823   1.404       .  A
C822        H827   1.083       .  S
C823        C824   1.420       .  A
C824        F825   1.358       .  S
C829        C830   1.407       .  A
C829        C834   1.413       .  A
C829        H836   1.083       .  S
C830        C831   1.426       .  A
C831        C832   1.402       .  A
C831        F838   1.358       .  S
C832        C833   1.394       .  A
C832        H837   1.084       .  S
C833        C834   1.417       .  A
C834        F835   1.358       .  S
C839        C840   1.405       .  A
C839        C844   1.410       .  A
C839        H846   1.083       .  S
C840        C841   1.424       .  A
C841        C842   1.407       .  A
C841        F848   1.358       .  S
C842        C843   1.398       .  A
C842        H847   1.083       .  S
C843        C844   1.417       .  A
C844        F845   1.357       .  S
C849        C850   1.403       .  A
C849        C854   1.391       .  A
C849        H856   1.084       .  S
C850        C851   1.406       .  A
C851        C852   1.393       .  A
C851        F858   1.355       .  S
C852        C853   1.400       .  A
C852        H857   1.083       .  S
C853        C854   1.402       .  A
C854        F855   1.358       .  S
C859        C860   1.400       .  A
C859        C864   1.391       .  A
C859        H866   1.084       .  S
C860        C861   1.404       .  A
C861        C862   1.393       .  A
C861        F868   1.358       .  S
C862        C863   1.402       .  A
C862        H867   1.084       .  S
C863        C864   1.407       .  A
C864        F865   1.358       .  S
C869        C870   1.402       .  A
C869        C874   1.395       .  A
C869        H876   1.083       .  S
C870        C871   1.405       .  A
C871        C872   1.395       .  A
C871        F878   1.358       .  S
C872        C873   1.401       .  A
C872        H877   1.084       .  S
C873        C874   1.404       .  A
C874        F875   1.358       .  S
C879        C880   1.401       .  A
C879        C884   1.387       .  A
C879        H886   1.084       .  S
C880        C881   1.403       .  A
C881        C882   1.393       .  A
C881        F888   1.358       .  S
C882        C883   1.403       .  A
C882        H887   1.083       .  S
C883        C884   1.404       .  A
C884        F885   1.358       .  S
C889        C890   1.409       .  A
C889        C894   1.399       .  A
C889        H896   1.084       .  S
C890        C891   1.399       .  A
C891        C892   1.406       .  A
C891        F898   1.357       .  S
C892        C893   1.421       .  A
C892        H897   1.078       .  S
C893        C894   1.410       .  A
C894        F895   1.357       .  S
C899        C900   1.406       .  A
C899        C904   1.413       .  A
C899        H906   1.083       .  S
C900        C901   1.413       .  A
C901        C902   1.404       .  A
C901        F908   1.358       .  S
C902        C903   1.405       .  A
C902        H907   1.083       .  S
C903        C904   1.414       .  A
C904        F905   1.357       .  S
C909        C910   1.417       .  A
C909        C914   1.411       .  A
C909        H916   1.083       .  S
C910        C911   1.402       .  A
C911        C912   1.401       .  A
C911        F918   1.352       .  S
C912        C913   1.413       .  A
C912        H917   1.083       .  S
C913        C914   1.407       .  A
C914        F915   1.357       .  S
C919        C920   1.416       .  A
C919        C924   1.406       .  A
C919        H926   1.083       .  S
C920        C921   1.404       .  A
C921        C922   1.406       .  A
C921        F928   1.357       .  S
C922        C923   1.415       .  A
C922        H927   1.083       .  S
C923        C924   1.403       .  A
C924        F925   1.355       .  S
O929        C940   1.306       .  A
O929       Eu965   2.542       .  S
O930        C941   1.305       .  A
O930       Eu964   2.533       .  S
O931        C942   1.289       .  A
O931       Eu937   2.456       .  S
O932        C943   1.289       .  A
O932       Eu937   2.451       .  S
O933        C943   1.284       .  A
O933       Eu967   2.424       .  S
O934        C942   1.282       .  A
O934       Eu966   2.413       .  S
O935        C941   1.287       .  A
O935       Eu937   2.427       .  S
O936        C940   1.286       .  A
O936       Eu937   2.425       .  S
Eu937       O947   2.348       .  S
Eu937       O939   2.330       .  S
Eu937       O938   2.350       .  S
Eu937       O945   2.354       .  S
O938       Eu967   2.337       .  S
O938       Eu964   2.374       .  S
O939       Eu965   2.363       .  S
O939       Eu966   2.338       .  S
C940       C1384   1.502       .  S
C941       C1294   1.500       .  S
C942       C1314   1.464       .  S
C943       C1324   1.459       .  S
H944        O945   0.964       .  S
O945       Eu966   2.348       .  S
O945       Eu964   2.390       .  S
H946        O947   0.968       .  S
O947       Eu965   2.368       .  S
O947       Eu967   2.346       .  S
O948        C971   1.307       .  A
O948       Eu964   2.542       .  S
O949        C972   1.303       .  A
O949       Eu965   2.524       .  S
O950        C973   1.288       .  A
O950       Eu966   2.438       .  S
O951        C974   1.284       .  A
O951       Eu967   2.416       .  S
O952        C975   1.284       .  A
O952       Eu967   2.416       .  S
O953        C976   1.288       .  A
O953       Eu966   2.440       .  S
O954        C977   1.285       .  A
O954       Eu968   2.427       .  S
O955        C978   1.285       .  A
O955       Eu968   2.433       .  S
O956        C977   1.283       .  A
O956       Eu966   2.417       .  S
O957        C978   1.283       .  A
O957       Eu967   2.421       .  S
O958        C973   1.304       .  A
O958       Eu964   2.537       .  S
O959        C976   1.304       .  A
O959       Eu965   2.532       .  S
O960        C975   1.305       .  A
O960       Eu965   2.541       .  S
O961        C974   1.306       .  A
O961       Eu964   2.549       .  S
O962        C971   1.287       .  A
O962       Eu968   2.433       .  S
O963        C972   1.287       .  A
O963       Eu968   2.430       .  S
Eu964       O982   2.378       .  S
Eu964       O970   2.377       .  S
Eu965       O969   2.370       .  S
Eu965       O980   2.382       .  S
Eu966       O980   2.345       .  S
Eu966       O970   2.340       .  S
Eu967       O969   2.340       .  S
Eu967       O982   2.343       .  S
Eu968       O969   2.340       .  S
Eu968       O980   2.348       .  S
Eu968       O982   2.353       .  S
Eu968       O970   2.346       .  S
C971       C1304   1.506       .  S
C972       C1377   1.499       .  S
C973       C1274   1.499       .  S
C974       C1287   1.509       .  S
C975       C1354   1.496       .  S
C976       C1364   1.497       .  S
C977       C1344   1.459       .  S
C978       C1337   1.452       .  S
H979        O980   0.966       .  S
H981        O982   0.966       .  S
N983       H1015   1.043       .  S
N983       C1452   1.350       .  A
N983        C987   1.350       .  A
N984        C992   1.344   1_455  A
N985       H1016   1.043       .  S
N985       C1454   1.345       .  A
N985        C989   1.345       .  A
N986        C994   1.347   1_455  A
C987        C995   1.387       .  A
C987       C1003   1.407       .  A
C988       N1447   1.352   1_545  A
C988       C1004   1.411       .  A
C988        C996   1.388       .  A
C989        C997   1.387       .  A
C989       C1006   1.402       .  A
C990       N1449   1.351   1_545  A
C990       C1005   1.410       .  A
C990        C998   1.387       .  A
C991       C1003   1.399       .  A
C991        C999   1.386       .  A
C992       C1006   1.405       .  A
C992       C1000   1.387       .  A
C993       C1001   1.386       .  A
C993       C1004   1.404       .  A
C994       C1002   1.387       .  A
C994       C1005   1.407       .  A
C995       C1460   1.372       .  A
C995       H1007   1.082       .  S
C996       C1459   1.371   1_545  A
C996       H1008   1.082       .  S
C997       C1462   1.373       .  A
C997       H1009   1.082       .  S
C998       C1461   1.371   1_545  A
C998       H1010   1.082       .  S
C999       H1011   1.083       .  S
C1000      H1012   1.082       .  S
C1001      H1013   1.082       .  S
C1002      H1014   1.083       .  S
C1003      C1334   1.467       .  S
C1004      C1327   1.475       .  S
C1005      C1317   1.476       .  S
C1006      C1347   1.471       .  S
O1017      C1028   1.300       .  A
O1017     Eu1517   2.510       .  S
O1018      C1029   1.308       .  A
O1018     Eu1052   2.551       .  S
O1019      C1030   1.286   1_554  A
O1020      C1031   1.285       .  A
O1020     Eu1025   2.424       .  S
O1021      C1031   1.286       .  A
O1021     Eu1055   2.438       .  S
O1022      C1030   1.285       .  A
O1022     Eu1054   2.436   1_556  S
O1023      C1029   1.288       .  A
O1023     Eu1025   2.434       .  S
O1024      C1028   1.291       .  A
O1024     Eu1025   2.457   1_556  S
Eu1025     O1035   2.343   1_554  S
Eu1025     O1026   2.356       .  S
O1026     Eu1055   2.345       .  S
O1026     Eu1052   2.376       .  S
O1027     Eu1054   2.338   1_556  S
C1028      C1264   1.502       .  S
C1029      C1177   1.506       .  S
C1030      C1197   1.460       .  S
C1031      C1207   1.458       .  S
H1032      O1033   0.967       .  S
O1033     Eu1054   2.344       .  S
H1034      O1035   0.965       .  S
O1035     Eu1517   2.374       .  S
O1035     Eu1055   2.356   1_556  S
O1036      C1059   1.307       .  A
O1036     Eu1516   2.545       .  S
O1037      C1060   1.308       .  A
O1037     Eu1053   2.551   1_545  S
O1038      C1061   1.281       .  A
O1038     Eu1054   2.407       .  S
O1039      C1062   1.288       .  A
O1039     Eu1055   2.439       .  S
O1040      C1063   1.288       .  A
O1040     Eu1519   2.442   1_546  S
O1041      C1064   1.284       .  A
O1041     Eu1518   2.422   1_556  S
O1042      C1065   1.288       .  A
O1043      C1066   1.289       .  A
O1043     Eu1056   2.455       .  S
O1044      C1065   1.283       .  A
O1044     Eu1518   2.415   1_556  S
O1045      C1066   1.283       .  A
O1045     Eu1519   2.420   1_546  S
O1046      C1061   1.306       .  A
O1047      C1064   1.305   1_565  A
O1048      C1063   1.305       .  A
O1048     Eu1053   2.536   1_545  S
O1049      C1062   1.305       .  A
O1049     Eu1052   2.542       .  S
O1050      C1059   1.286       .  A
O1050     Eu1056   2.424   1_554  S
O1051      C1060   1.285       .  A
O1051     Eu1056   2.416       .  S
Eu1052     O1500   2.535       .  S
Eu1052     O1534   2.394       .  S
Eu1053     O1481   2.539       .  S
Eu1053     O1499   2.382       .  S
Eu1053     O1057   2.372   1_565  S
Eu1054     O1505   2.430   1_554  S
Eu1054     O1508   2.423   1_554  S
Eu1054     O1532   2.335   1_554  S
Eu1054     O1522   2.352       .  S
Eu1055     O1504   2.433   1_554  S
Eu1055     O1509   2.440   1_554  S
Eu1055     O1521   2.346   1_554  S
Eu1055     O1534   2.352       .  S
Eu1056     O1057   2.334       .  S
Eu1056     O1070   2.342   1_556  S
O1057     Eu1519   2.348   1_546  S
O1058     Eu1518   2.348       .  S
C1059      C1184   1.507       .  S
C1060      C1254   1.498       .  S
C1061      C1154   1.509       .  S
C1062      C1167   1.501       .  S
C1063      C1237   1.495       .  S
C1064      C1244   1.492       .  S
C1065      C1227   1.462       .  S
C1066      C1214   1.467       .  S
H1067      O1068   0.965       .  S
O1068     Eu1518   2.340   1_556  S
H1069      O1070   0.966       .  S
O1070     Eu1516   2.387       .  S
O1070     Eu1519   2.352   1_545  S
N1071      H1103   1.043       .  S
N1071      C1076   1.349       .  A
N1071      C1075   1.349       .  A
N1072      C1079   1.345       .  A
N1072      C1080   1.345       .  A
N1073      H1104   1.042       .  S
N1073      C1078   1.349       .  A
N1073      C1077   1.349       .  A
N1074      C1081   1.345       .  A
N1074      C1082   1.346       .  A
C1075      C1083   1.388       .  A
C1075      C1091   1.409       .  A
C1076      C1092   1.406       .  A
C1076      C1084   1.386   1_556  A
C1077      C1085   1.390   1_556  A
C1077      C1094   1.411       .  A
C1078      C1093   1.404       .  A
C1078      C1086   1.384   1_556  A
C1079      C1091   1.405       .  A
C1079      C1087   1.386       .  A
C1080      C1094   1.406       .  A
C1080      C1088   1.387       .  A
C1081      C1089   1.386       .  A
C1081      C1092   1.403       .  A
C1082      C1090   1.385       .  A
C1082      C1093   1.403       .  A
C1083      C1084   1.373   1_556  A
C1083      H1095   1.082   1_556  S
C1084      H1096   1.082       .  S
C1085      C1086   1.373       .  A
C1085      H1097   1.082       .  S
C1086      H1098   1.082       .  S
C1087      C1088   1.376       .  A
C1087      H1099   1.083       .  S
C1088      H1100   1.082       .  S
C1089      C1090   1.373       .  A
C1089      H1101   1.082       .  S
C1090      H1102   1.082       .  S
C1091      C1217   1.475       .  S
C1092      C1204   1.475       .  S
C1093      C1194   1.476       .  S
C1094      C1224   1.477       .  S
C1105      C1106   1.530       .  S
C1105      C1109   1.526       .  S
C1105      C1357   1.547       .  S
C1106      H1113   1.083       .  S
C1107      C1108   1.558   1_455  S
C1107      C1187   1.500   1_455  S
C1108      C1112   1.547       .  S
C1108      C1110   1.564   1_655  S
C1108      H1114   1.108       .  S
C1109      H1115   1.086       .  S
C1110      C1174   1.517       .  S
C1111      H1116   1.086       .  S
C1111      C1112   1.382   1_455  D
C1112      C1367   1.509       .  S
C1117      C1118   1.527       .  S
C1117      C1123   1.561       .  S
C1117      C1585   1.529       .  S
C1117      C1157   1.548       .  S
C1118      H1125   1.086       .  S
C1118      C1119   1.366       .  D
C1119      C1120   1.560       .  S
C1119      C1374   1.501       .  S
C1120      C1124   1.537       .  S
C1120      C1586   1.562       .  S
C1120      H1126   1.107       .  S
C1121      C1581   1.531   1_545  S
C1121      H1127   1.086       .  S
C1121      C1122   1.368       .  D
C1122      C1584   1.562   1_545  S
C1122      C1387   1.511       .  S
C1123      H1128   1.080       .  S
C1123      C1124   1.375       .  D
C1124      C1164   1.505       .  S
C1129      C1130   1.533       .  S
C1129      C1133   1.525       .  S
C1129      C1284   1.553       .  S
C1130      H1137   1.086       .  S
C1131      C1132   1.563   1_455  S
C1131      C1267   1.512       .  S
C1132      C1136   1.536       .  S
C1132      C1134   1.566   1_655  S
C1132      H1138   1.105       .  S
C1133      H1139   1.082       .  S
C1134      C1257   1.518       .  S
C1135      H1140   1.082       .  S
C1135      C1136   1.376   1_455  D
C1136      C1277   1.504       .  S
C1141      C1606   1.532       .  S
C1141      C1147   1.556       .  S
C1141      C1145   1.543       .  S
C1141      C1247   1.555       .  S
C1142      C1605   1.528   1_545  S
C1142      H1149   1.086       .  S
C1142      C1143   1.365       .  D
C1143      C1608   1.560   1_545  S
C1143      C1297   1.504       .  S
C1144      C1607   1.554       .  S
C1144      C1148   1.538       .  S
C1144      C1146   1.552       .  S
C1144      H1150   1.111       .  S
C1145      H1151   1.080       .  S
C1145      C1146   1.365       .  D
C1146      C1307   1.505       .  S
C1147      H1152   1.086       .  S
C1147      C1148   1.381       .  D
C1148      C1234   1.496       .  S
C1153      C1154   1.406       .  A
C1153      C1158   1.415       .  A
C1153      H1160   1.083       .  S
C1154      C1155   1.421       .  A
C1155      C1156   1.393       .  A
C1155      F1162   1.358       .  S
C1156      C1157   1.402       .  A
C1156      H1161   1.076       .  S
C1157      C1158   1.422       .  A
C1158      F1623   1.357       .  S
F1159      C1622   1.357       .  S
C1163      C1628   1.404       .  A
C1163      C1168   1.403       .  A
C1163      H1170   1.083       .  S
C1164      C1627   1.402       .  A
C1164      C1165   1.415       .  A
C1165      C1166   1.416       .  A
C1165      F1172   1.357       .  S
C1166      C1167   1.408       .  A
C1166      H1171   1.083       .  S
C1167      C1632   1.411       .  A
C1168      C1631   1.409       .  A
C1168      F1169   1.358       .  S
C1173      C1174   1.419       .  A
C1173      C1178   1.411       .  A
C1173      H1180   1.082       .  S
C1175      C1176   1.405       .  A
C1175      F1182   1.354       .  S
C1176      H1181   1.083       .  S
C1177      C1178   1.405   1_655  A
C1178      F1179   1.357       .  S
C1183      C1184   1.419       .  A
C1183      C1188   1.405       .  A
C1183      H1190   1.083       .  S
C1185      C1186   1.406       .  A
C1185      F1192   1.357       .  S
C1186      H1191   1.083       .  S
C1187      C1188   1.400       .  A
C1188      F1189   1.356       .  S
C1193      C1194   1.403   1_554  A
C1193      C1198   1.393       .  A
C1193      H1200   1.083       .  S
C1194      C1195   1.404       .  A
C1195      C1196   1.393       .  A
C1195      F1202   1.358       .  S
C1196      C1197   1.402       .  A
C1196      H1201   1.084       .  S
C1197      C1198   1.403   1_556  A
C1198      F1199   1.358       .  S
C1203      C1204   1.405   1_554  A
C1203      C1208   1.394       .  A
C1203      H1210   1.083       .  S
C1204      C1205   1.404       .  A
C1205      C1206   1.388       .  A
C1205      F1212   1.358       .  S
C1206      C1207   1.401   1_556  A
C1206      H1211   1.084       .  S
C1207      C1208   1.403       .  A
C1208      F1209   1.358       .  S
C1213      C1214   1.404       .  A
C1213      C1218   1.393       .  A
C1213      H1220   1.083       .  S
C1214      C1215   1.406   1_556  A
C1215      C1216   1.392   1_554  A
C1215      F1222   1.357       .  S
C1216      C1217   1.402       .  A
C1216      H1221   1.084   1_556  S
C1217      C1218   1.403       .  A
C1218      F1219   1.358       .  S
C1223      C1224   1.402       .  A
C1223      C1228   1.390       .  A
C1223      H1230   1.084       .  S
C1224      C1225   1.406       .  A
C1225      C1226   1.392   1_556  A
C1225      F1232   1.358   1_556  S
C1226      C1227   1.404   1_554  A
C1226      H1231   1.084       .  S
C1227      C1228   1.405       .  A
C1228      F1229   1.358       .  S
C1233      C1234   1.410       .  A
C1233      C1238   1.412       .  A
C1233      H1240   1.083       .  S
C1234      C1699   1.404       .  A
C1235      C1698   1.407       .  A
C1235      C1236   1.405       .  A
C1235      F1242   1.358       .  S
C1236      C1237   1.411       .  A
C1236      H1241   1.084       .  S
C1237      C1702   1.406   1_545  A
C1238      C1701   1.408       .  A
C1238      F1239   1.357       .  S
C1243      C1708   1.409       .  A
C1243      C1248   1.406       .  A
C1243      H1250   1.084       .  S
C1244      C1707   1.409       .  A
C1244      C1245   1.401   1_545  A
C1245      C1246   1.408       .  A
C1245      F1252   1.357       .  S
C1246      C1711   1.421       .  A
C1246      H1251   1.077       .  S
C1247      C1710   1.422       .  A
C1247      C1248   1.412       .  A
C1248      F1249   1.358       .  S
C1253      C1258   1.408       .  A
C1253      H1260   1.082       .  S
C1254      C1255   1.402   1_655  A
C1255      C1256   1.408       .  A
C1255      F1262   1.357       .  S
C1256      C1257   1.420       .  A
C1256      H1261   1.081       .  S
C1258      F1259   1.353       .  S
C1263      C1268   1.407       .  A
C1263      H1270   1.083       .  S
C1264      C1265   1.408   1_655  A
C1265      C1266   1.409       .  A
C1265      F1272   1.358       .  S
C1266      C1267   1.416       .  A
C1266      H1271   1.083       .  S
C1268      F1269   1.357       .  S
C1273      C1274   1.407       .  A
C1273      C1278   1.416       .  A
C1273      H1280   1.083       .  S
C1274      C1275   1.410       .  A
C1275      C1276   1.399       .  A
C1275      F1282   1.353       .  S
C1276      C1277   1.401       .  A
C1276      H1281   1.083       .  S
C1277      C1278   1.416       .  A
C1278      F1279   1.357       .  S
C1283      C1284   1.407       .  A
C1283      C1288   1.399       .  A
C1283      H1290   1.079       .  S
C1284      C1285   1.421       .  A
C1285      C1286   1.415       .  A
C1285      F1292   1.356       .  S
C1286      C1287   1.406       .  A
C1286      H1291   1.083       .  S
C1287      C1288   1.418       .  A
C1288      F1289   1.359       .  S
C1293      C1294   1.402       .  A
C1293      C1298   1.407       .  A
C1293      H1300   1.083       .  S
C1294      C1295   1.419       .  A
C1295      C1296   1.404       .  A
C1295      F1302   1.358       .  S
C1296      C1297   1.399       .  A
C1296      H1301   1.083       .  S
C1297      C1298   1.419       .  A
C1298      F1299   1.357       .  S
C1303      C1304   1.404       .  A
C1303      C1308   1.408       .  A
C1303      H1310   1.083       .  S
C1304      C1305   1.421       .  A
C1305      C1306   1.407       .  A
C1305      F1312   1.358       .  S
C1306      C1307   1.400       .  A
C1306      H1311   1.083       .  S
C1307      C1308   1.416       .  A
C1308      F1309   1.357       .  S
C1313      C1314   1.403       .  A
C1313      C1318   1.394       .  A
C1313      H1320   1.083       .  S
C1314      C1315   1.404       .  A
C1315      C1316   1.390       .  A
C1315      F1322   1.353       .  S
C1316      C1317   1.401       .  A
C1316      H1321   1.084       .  S
C1317      C1318   1.404       .  A
C1318      F1319   1.357       .  S
C1323      C1324   1.402       .  A
C1323      C1328   1.394       .  A
C1323      H1330   1.084       .  S
C1324      C1325   1.404       .  A
C1325      C1326   1.392       .  A
C1325      F1332   1.358       .  S
C1326      C1327   1.400       .  A
C1326      H1331   1.083       .  S
C1327      C1328   1.406       .  A
C1328      F1329   1.358       .  S
C1333      C1334   1.399       .  A
C1333      C1338   1.390       .  A
C1333      H1340   1.083       .  S
C1334      C1335   1.405       .  A
C1335      C1336   1.390       .  A
C1335      F1342   1.358       .  S
C1336      C1337   1.400       .  A
C1336      H1341   1.084       .  S
C1337      C1338   1.403       .  A
C1338      F1339   1.358       .  S
C1343      C1344   1.401       .  A
C1343      C1348   1.388       .  A
C1343      H1350   1.084       .  S
C1344      C1345   1.407       .  A
C1345      C1346   1.389       .  A
C1345      F1352   1.358       .  S
C1346      C1347   1.400       .  A
C1346      H1351   1.083       .  S
C1347      C1348   1.406       .  A
C1348      F1349   1.358       .  S
C1353      C1354   1.411       .  A
C1353      C1358   1.401       .  A
C1353      H1360   1.084       .  S
C1354      C1355   1.402       .  A
C1355      C1356   1.409       .  A
C1355      F1362   1.357       .  S
C1356      C1357   1.422       .  A
C1356      H1361   1.079       .  S
C1357      C1358   1.409       .  A
C1358      F1359   1.357       .  S
C1363      C1364   1.406       .  A
C1363      C1368   1.413       .  A
C1363      H1370   1.083       .  S
C1364      C1365   1.412       .  A
C1365      C1366   1.403       .  A
C1365      F1372   1.358       .  S
C1366      C1367   1.405       .  A
C1366      H1371   1.083       .  S
C1367      C1368   1.416       .  A
C1368      F1369   1.357       .  S
C1373      C1374   1.415       .  A
C1373      C1378   1.408       .  A
C1373      H1380   1.083       .  S
C1374      C1375   1.401       .  A
C1375      C1376   1.400       .  A
C1375      F1382   1.353       .  S
C1376      C1377   1.414       .  A
C1376      H1381   1.083       .  S
C1377      C1378   1.407       .  A
C1378      F1379   1.357       .  S
C1383      C1384   1.415       .  A
C1383      C1388   1.405       .  A
C1383      H1390   1.083       .  S
C1384      C1385   1.404       .  A
C1385      C1386   1.407       .  A
C1385      F1392   1.357       .  S
C1386      C1387   1.416       .  A
C1386      H1391   1.082       .  S
C1387      C1388   1.404       .  A
C1388      F1389   1.353       .  S
O1393      C1404   1.305       .  A
O1393     Eu1429   2.537       .  S
O1394      C1405   1.309       .  A
O1394     Eu1428   2.558       .  S
O1395      C1406   1.286       .  A
O1395     Eu1401   2.433       .  S
O1396      C1407   1.288       .  A
O1396     Eu1401   2.452       .  S
O1397      C1407   1.284       .  A
O1397     Eu1431   2.429       .  S
O1398      C1406   1.286       .  A
O1398     Eu1430   2.437       .  S
O1399      C1405   1.283       .  A
O1399     Eu1401   2.415       .  S
O1400      C1404   1.284       .  A
O1400     Eu1401   2.416       .  S
Eu1401     O1411   2.338       .  S
Eu1401     O1403   2.346       .  S
Eu1401     O1402   2.351       .  S
Eu1401     O1409   2.352       .  S
O1402     Eu1431   2.343       .  S
O1402     Eu1428   2.388       .  S
O1403     Eu1429   2.371       .  S
O1403     Eu1430   2.349       .  S
C1404      C1848   1.493       .  S
C1405      C1758   1.513       .  S
C1406      C1778   1.465       .  S
C1407      C1788   1.461       .  S
H1408      O1409   0.963       .  S
O1409     Eu1430   2.351       .  S
O1409     Eu1428   2.382       .  S
H1410      O1411   0.968       .  S
O1411     Eu1429   2.371       .  S
O1411     Eu1431   2.337       .  S
O1412      C1435   1.309       .  A
O1412     Eu1428   2.556       .  S
O1413      C1436   1.304       .  A
O1413     Eu1429   2.530       .  S
O1414      C1437   1.288       .  A
O1414     Eu1430   2.440       .  S
O1415      C1438   1.283       .  A
O1415     Eu1431   2.412       .  S
O1416      C1439   1.284       .  A
O1416     Eu1431   2.418       .  S
O1417      C1440   1.289       .  A
O1417     Eu1430   2.442       .  S
O1418      C1441   1.284       .  A
O1418     Eu1432   2.419       .  S
O1419      C1442   1.287       .  A
O1419     Eu1432   2.445       .  S
O1420      C1441   1.288       .  A
O1420     Eu1430   2.450       .  S
O1421      C1442   1.282       .  A
O1421     Eu1431   2.418       .  S
O1422      C1437   1.304       .  A
O1422     Eu1428   2.535       .  S
O1423      C1440   1.307       .  A
O1423     Eu1429   2.548       .  S
O1424      C1439   1.304       .  A
O1424     Eu1429   2.533       .  S
O1425      C1438   1.305       .  A
O1425     Eu1428   2.538       .  S
O1426      C1435   1.286       .  A
O1426     Eu1432   2.430       .  S
O1427      C1436   1.288       .  A
O1427     Eu1432   2.434       .  S
Eu1428     O1446   2.377       .  S
Eu1428     O1434   2.382       .  S
Eu1429     O1433   2.366       .  S
Eu1429     O1444   2.373       .  S
Eu1430     O1444   2.352       .  S
Eu1430     O1434   2.350       .  S
Eu1431     O1433   2.337       .  S
Eu1431     O1446   2.343       .  S
Eu1432     O1433   2.331       .  S
Eu1432     O1444   2.349       .  S
Eu1432     O1446   2.342       .  S
Eu1432     O1434   2.355       .  S
C1435      C1768   1.511       .  S
C1436      C1841   1.503       .  S
C1437      C1738   1.491       .  S
C1438      C1751   1.502       .  S
C1439      C1818   1.491       .  S
C1440      C1828   1.503       .  S
C1441      C1808   1.460       .  S
C1442      C1801   1.453       .  S
H1443      O1444   0.966       .  S
H1445      O1446   0.966       .  S
N1447      H1479   1.042       .  S
N1447      C1451   1.350       .  A
N1448      C1456   1.347   1_455  A
N1449      H1480   1.042       .  S
N1449      C1453   1.351       .  A
N1450      C1458   1.345   1_455  A
C1451      C1459   1.386       .  A
C1451      C1467   1.408       .  A
C1452      C1468   1.408       .  A
C1452      C1460   1.387       .  A
C1453      C1461   1.387       .  A
C1453      C1470   1.409       .  A
C1454      C1469   1.400       .  A
C1454      C1462   1.385       .  A
C1455      C1467   1.403       .  A
C1455      C1463   1.387       .  A
C1456      C1470   1.406       .  A
C1456      C1464   1.387       .  A
C1457      C1465   1.387       .  A
C1457      C1468   1.403       .  A
C1458      C1466   1.386       .  A
C1458      C1469   1.403       .  A
C1459      H1471   1.082       .  S
C1460      H1472   1.082       .  S
C1461      H1473   1.082       .  S
C1462      H1474   1.082       .  S
C1463      H1475   1.083       .  S
C1464      H1476   1.082       .  S
C1465      H1477   1.082       .  S
C1466      H1478   1.082       .  S
C1467      C1798   1.471       .  S
C1468      C1791   1.475       .  S
C1469      C1781   1.472       .  S
C1470      C1811   1.477       .  S
O1481      C1492   1.306       .  A
O1482      C1493   1.305       .  A
O1482     Eu1516   2.533   1_565  S
O1483      C1494   1.286   1_554  A
O1484      C1495   1.284       .  A
O1484     Eu1489   2.423   1_556  S
O1485      C1495   1.286   1_554  A
O1485     Eu1519   2.437       .  S
O1486      C1494   1.285       .  A
O1486     Eu1518   2.435   1_566  S
O1487      C1493   1.288       .  A
O1487     Eu1489   2.435       .  S
O1488      C1492   1.285       .  A
O1488     Eu1489   2.421   1_556  S
Eu1489     O1499   2.349   1_554  S
Eu1489     O1490   2.349       .  S
O1490     Eu1519   2.348       .  S
O1490     Eu1516   2.388   1_565  S
O1491     Eu1518   2.332   1_566  S
C1492      C1728   1.501       .  S
C1493      C1641   1.500       .  S
C1494      C1661   1.464       .  S
C1495      C1671   1.455       .  S
H1496      O1497   0.967       .  S
O1497     Eu1518   2.340   1_565  S
H1498      O1499   0.965       .  S
O1499     Eu1519   2.353   1_556  S
O1500      C1523   1.306       .  A
O1501      C1524   1.301       .  A
O1501     Eu1517   2.518       .  S
O1502      C1525   1.280       .  A
O1502     Eu1518   2.399       .  S
O1503      C1526   1.290       .  A
O1503     Eu1519   2.451   1_545  S
O1504      C1527   1.287       .  A
O1505      C1528   1.286       .  A
O1506      C1529   1.289       .  A
O1507      C1530   1.288       .  A
O1507     Eu1520   2.451   1_556  S
O1508      C1529   1.284       .  A
O1509      C1530   1.286       .  A
O1510      C1525   1.309       .  A
O1511      C1528   1.305       .  A
O1512      C1527   1.305       .  A
O1512     Eu1517   2.535       .  S
O1513      C1526   1.301       .  A
O1513     Eu1516   2.517       .  S
O1514      C1523   1.290       .  A
O1514     Eu1520   2.446       .  S
O1515      C1524   1.288       .  A
O1515     Eu1520   2.443   1_556  S
Eu1517     O1521   2.374       .  S
Eu1520     O1521   2.342   1_554  S
Eu1520     O1534   2.359       .  S
C1523      C1648   1.505       .  S
C1524      C1718   1.481       .  S
C1525      C1618   1.511   1_545  S
C1526      C1631   1.487       .  S
C1527      C1701   1.491       .  S
C1528      C1708   1.494       .  S
C1529      C1691   1.467       .  S
C1530      C1678   1.468       .  S
H1531      O1532   0.965       .  S
H1533      O1534   0.966       .  S
N1535      H1567   1.042       .  S
N1535      C1540   1.350       .  A
N1535      C1539   1.350       .  A
N1536      C1543   1.346       .  A
N1536      C1544   1.346       .  A
N1537      H1568   1.043       .  S
N1537      C1542   1.350       .  A
N1537      C1541   1.348       .  A
N1538      C1545   1.344       .  A
N1538      C1546   1.347       .  A
C1539      C1547   1.388       .  A
C1539      C1555   1.410       .  A
C1540      C1556   1.406       .  A
C1540      C1548   1.386       .  A
C1541      C1549   1.389       .  A
C1541      C1558   1.409       .  A
C1542      C1557   1.406       .  A
C1542      C1550   1.385       .  A
C1543      C1555   1.406       .  A
C1543      C1551   1.386       .  A
C1544      C1558   1.407       .  A
C1544      C1552   1.387       .  A
C1545      C1553   1.386       .  A
C1545      C1556   1.402       .  A
C1546      C1554   1.387       .  A
C1546      C1557   1.406       .  A
C1547      C1548   1.371       .  A
C1547      H1559   1.082       .  S
C1548      H1560   1.082       .  S
C1549      C1550   1.373       .  A
C1549      H1561   1.082   1_556  S
C1550      H1562   1.082   1_556  S
C1551      C1552   1.377       .  A
C1551      H1563   1.083       .  S
C1552      H1564   1.083       .  S
C1553      C1554   1.374       .  A
C1553      H1565   1.082       .  S
C1554      H1566   1.082       .  S
C1555      C1681   1.476       .  S
C1556      C1668   1.473       .  S
C1557      C1658   1.483       .  S
C1558      C1688   1.476       .  S
C1569      C1570   1.536       .  S
C1569      C1573   1.527       .  S
C1569      C1821   1.547       .  S
C1570      H1577   1.083       .  S
C1571      C1572   1.567   1_455  S
C1571      C1651   1.514       .  S
C1572      C1576   1.550       .  S
C1572      C1574   1.567   1_655  S
C1572      H1578   1.108       .  S
C1573      H1579   1.086       .  S
C1574      C1638   1.513       .  S
C1575      H1580   1.085       .  S
C1575      C1576   1.378   1_455  D
C1576      C1831   1.509       .  S
C1581      C1582   1.529       .  S
C1581      C1587   1.559   1_565  S
C1581      C1621   1.548       .  S
C1582      H1589   1.086       .  S
C1582      C1583   1.365       .  D
C1583      C1584   1.564       .  S
C1583      C1838   1.508       .  S
C1584      C1588   1.540       .  S
C1584      H1590   1.109       .  S
C1585      H1591   1.085       .  S
C1585      C1586   1.368       .  D
C1586      C1851   1.510       .  S
C1587      H1592   1.081       .  S
C1587      C1588   1.373   1_545  D
C1588      C1628   1.495   1_565  S
C1593      C1594   1.525       .  S
C1593      C1597   1.529       .  S
C1593      C1748   1.543       .  S
C1594      H1601   1.087       .  S
C1595      C1596   1.556   1_455  S
C1595      C1731   1.504       .  S
C1596      C1600   1.535       .  S
C1596      C1598   1.562   1_655  S
C1596      H1602   1.107       .  S
C1597      H1603   1.083       .  S
C1598      C1721   1.512       .  S
C1599      H1604   1.082       .  S
C1599      C1600   1.373   1_455  D
C1600      C1741   1.494       .  S
C1605      C1611   1.557       .  S
C1605      C1609   1.538       .  S
C1605      C1711   1.551       .  S
C1606      H1613   1.087       .  S
C1606      C1607   1.362       .  D
C1607      C1761   1.494       .  S
C1608      C1612   1.539       .  S
C1608      C1610   1.560       .  S
C1608      H1614   1.110       .  S
C1609      H1615   1.080       .  S
C1609      C1610   1.364       .  D
C1610      C1771   1.512       .  S
C1611      H1616   1.085   1_565  S
C1611      C1612   1.380       .  D
C1612      C1698   1.501   1_565  S
C1617      C1618   1.405       .  A
C1617      C1622   1.413       .  A
C1617      H1624   1.083       .  S
C1618      C1619   1.424       .  A
C1619      C1620   1.397       .  A
C1619      F1626   1.359   1_565  S
C1620      C1621   1.403       .  A
C1620      H1625   1.076       .  S
C1621      C1622   1.421       .  A
C1627      C1632   1.399       .  A
C1627      H1634   1.083       .  S
C1628      C1629   1.409   1_545  A
C1629      C1630   1.410       .  A
C1629      F1636   1.357       .  S
C1630      C1631   1.405   1_565  A
C1630      H1635   1.083       .  S
C1632      F1633   1.355       .  S
C1637      C1638   1.417       .  A
C1637      C1642   1.406       .  A
C1637      H1644   1.082       .  S
C1639      C1640   1.402       .  A
C1639      F1646   1.352       .  S
C1640      H1645   1.083       .  S
C1641      C1642   1.403   1_655  A
C1642      F1643   1.357       .  S
C1647      C1648   1.414       .  A
C1647      C1652   1.408       .  A
C1647      H1654   1.083       .  S
C1649      C1650   1.409       .  A
C1649      F1656   1.357       .  S
C1650      H1655   1.083       .  S
C1651      C1652   1.404   1_455  A
C1652      F1653   1.352       .  S
C1657      C1658   1.404   1_554  A
C1657      C1662   1.394       .  A
C1657      H1664   1.083       .  S
C1658      C1659   1.407       .  A
C1659      C1660   1.392       .  A
C1659      F1666   1.358       .  S
C1660      C1661   1.402       .  A
C1660      H1665   1.084       .  S
C1661      C1662   1.404   1_556  A
C1662      F1663   1.358       .  S
C1667      C1668   1.404   1_554  A
C1667      C1672   1.392       .  A
C1667      H1674   1.083       .  S
C1668      C1669   1.403       .  A
C1669      C1670   1.390       .  A
C1669      F1676   1.358       .  S
C1670      C1671   1.402       .  A
C1670      H1675   1.084       .  S
C1671      C1672   1.401   1_556  A
C1672      F1673   1.358       .  S
C1677      C1678   1.405       .  A
C1677      C1682   1.397       .  A
C1677      H1684   1.083       .  S
C1678      C1679   1.403       .  A
C1679      C1680   1.393       .  A
C1679      F1686   1.354   1_556  S
C1680      C1681   1.401       .  A
C1680      H1685   1.084   1_556  S
C1681      C1682   1.404       .  A
C1682      F1683   1.358       .  S
C1687      C1688   1.403       .  A
C1687      C1692   1.393       .  A
C1687      H1694   1.084       .  S
C1688      C1689   1.404       .  A
C1689      C1690   1.392       .  A
C1689      F1696   1.358   1_556  S
C1690      C1691   1.404       .  A
C1690      H1695   1.083   1_556  S
C1691      C1692   1.406       .  A
C1692      F1693   1.357       .  S
C1697      C1698   1.410   1_565  A
C1697      C1702   1.410       .  A
C1697      H1704   1.083       .  S
C1699      C1700   1.402       .  A
C1699      F1706   1.357       .  S
C1700      C1701   1.409       .  A
C1700      H1705   1.084       .  S
C1702      F1703   1.357       .  S
C1707      C1712   1.404       .  A
C1707      H1714   1.084       .  S
C1708      C1709   1.402       .  A
C1709      C1710   1.409       .  A
C1709      F1716   1.357       .  S
C1710      H1715   1.076       .  S
C1711      C1712   1.412   1_565  A
C1712      F1713   1.358       .  S
C1717      C1722   1.412       .  A
C1717      H1724   1.082       .  S
C1718      C1719   1.402   1_655  A
C1719      C1720   1.400       .  A
C1719      F1726   1.358       .  S
C1720      C1721   1.414       .  A
C1720      H1725   1.082       .  S
C1722      F1723   1.355       .  S
C1727      C1732   1.404       .  A
C1727      H1734   1.083       .  S
C1728      C1729   1.404   1_655  A
C1729      C1730   1.406       .  A
C1729      F1736   1.357       .  S
C1730      C1731   1.414       .  A
C1730      H1735   1.082       .  S
C1732      F1733   1.357       .  S
C1737      C1738   1.406       .  A
C1737      C1742   1.411       .  A
C1737      H1744   1.083       .  S
C1738      C1739   1.410       .  A
C1739      C1740   1.403       .  A
C1739      F1746   1.356       .  S
C1740      C1741   1.402       .  A
C1740      H1745   1.083       .  S
C1741      C1742   1.409       .  A
C1742      F1743   1.357       .  S
C1747      C1748   1.403       .  A
C1747      C1752   1.398       .  A
C1747      H1754   1.078       .  S
C1748      C1749   1.421       .  A
C1749      C1750   1.409       .  A
C1749      F1756   1.357       .  S
C1750      C1751   1.403       .  A
C1750      H1755   1.083       .  S
C1751      C1752   1.420       .  A
C1752      F1753   1.359       .  S
C1757      C1758   1.408       .  A
C1757      C1762   1.413       .  A
C1757      H1764   1.083       .  S
C1758      C1759   1.427       .  A
C1759      C1760   1.400       .  A
C1759      F1766   1.358       .  S
C1760      C1761   1.392       .  A
C1760      H1765   1.084       .  S
C1761      C1762   1.414       .  A
C1762      F1763   1.357       .  S
C1767      C1768   1.404       .  A
C1767      C1772   1.410       .  A
C1767      H1774   1.083       .  S
C1768      C1769   1.423       .  A
C1769      C1770   1.408       .  A
C1769      F1776   1.358       .  S
C1770      C1771   1.400       .  A
C1770      H1775   1.083       .  S
C1771      C1772   1.420       .  A
C1772      F1773   1.357       .  S
C1777      C1778   1.403       .  A
C1777      C1782   1.392       .  A
C1777      H1784   1.083       .  S
C1778      C1779   1.406       .  A
C1779      C1780   1.391       .  A
C1779      F1786   1.356       .  S
C1780      C1781   1.399       .  A
C1780      H1785   1.083       .  S
C1781      C1782   1.405       .  A
C1782      F1783   1.358       .  S
C1787      C1788   1.401       .  A
C1787      C1792   1.392       .  A
C1787      H1794   1.084       .  S
C1788      C1789   1.405       .  A
C1789      C1790   1.394       .  A
C1789      F1796   1.358       .  S
C1790      C1791   1.402       .  A
C1790      H1795   1.084       .  S
C1791      C1792   1.405       .  A
C1792      F1793   1.358       .  S
C1797      C1798   1.401       .  A
C1797      C1802   1.392       .  A
C1797      H1804   1.083       .  S
C1798      C1799   1.404       .  A
C1799      C1800   1.392       .  A
C1799      F1806   1.358       .  S
C1800      C1801   1.400       .  A
C1800      H1805   1.084       .  S
C1801      C1802   1.402       .  A
C1802      F1803   1.358       .  S
C1807      C1808   1.403       .  A
C1807      C1812   1.390       .  A
C1807      H1814   1.084       .  S
C1808      C1809   1.402       .  A
C1809      C1810   1.395       .  A
C1809      F1816   1.358       .  S
C1810      C1811   1.405       .  A
C1810      H1815   1.083       .  S
C1811      C1812   1.403       .  A
C1812      F1813   1.358       .  S
C1817      C1818   1.409       .  A
C1817      C1822   1.400       .  A
C1817      H1824   1.084       .  S
C1818      C1819   1.402       .  A
C1819      C1820   1.410       .  A
C1819      F1826   1.357       .  S
C1820      C1821   1.421       .  A
C1820      H1825   1.078       .  S
C1821      C1822   1.410       .  A
C1822      F1823   1.357       .  S
C1827      C1828   1.408       .  A
C1827      C1832   1.414       .  A
C1827      H1834   1.083       .  S
C1828      C1829   1.414       .  A
C1829      C1830   1.405       .  A
C1829      F1836   1.358       .  S
C1830      C1831   1.405       .  A
C1830      H1835   1.083       .  S
C1831      C1832   1.413       .  A
C1832      F1833   1.357       .  S
C1837      C1838   1.416       .  A
C1837      C1842   1.410       .  A
C1837      H1844   1.083       .  S
C1838      C1839   1.402       .  A
C1839      C1840   1.403       .  A
C1839      F1846   1.352       .  S
C1840      C1841   1.414       .  A
C1840      H1845   1.083       .  S
C1841      C1842   1.407       .  A
C1842      F1843   1.357       .  S
C1847      C1848   1.412       .  A
C1847      C1852   1.404       .  A
C1847      H1854   1.083       .  S
C1848      C1849   1.402       .  A
C1849      C1850   1.405       .  A
C1849      F1856   1.357       .  S
C1850      C1851   1.417       .  A
C1850      H1855   1.081       .  S
C1851      C1852   1.406       .  A
C1852      F1853   1.353       .  S
