geometry optimzed in LAMMPS
_audit_creation_date              2020-11-30 
_audit_creation_method            'lammps2cif' 
_symmetry_space_group_name_H-M    'P1' 
_symmetry_Int_Tables_number       1 
_symmetry_cell_setting            triclinic 
loop_ 
_symmetry_equiv_pos_as_xyz 
  x,y,z 
_cell_length_a                    31.165902 
_cell_length_b                    30.600435799095422 
_cell_length_c                    31.135847521604134 
_cell_angle_alpha                 90.6998817022549 
_cell_angle_beta                  81.9564075600028 
_cell_angle_gamma                 82.28882512711999 
loop_ 
_atom_site_label 
_atom_site_type_symbol 
_atom_site_fract_x 
_atom_site_fract_y 
_atom_site_fract_z 
_atom_site_charge 
O1          O  0.11325105  0.98226267  0.98465183    -0.81200
O2          O  0.91990041  0.03257500  0.95651722    -0.65800
O3          O  0.04016546  0.03760257  0.96322549    -1.12400
C4          C  0.98862615  0.04004153  0.11445137     1.05700
O5          O  0.90443789  0.08987329  0.00190628    -0.79100
O6          O  0.95505743  0.12255279  0.05324772    -0.66600
Ni7        Ni  0.08547154  0.99556820  0.93390846     1.34900
C8          C  0.99263396  0.13136616  0.03782417     0.84500
O9          O  0.99027564  0.03242932  0.89627850    -0.79600
O10         O  0.06194588  0.00540534  0.88086451    -0.89900
C11         C  0.89222344  0.06290387  0.97637254     0.84000
O12         O  0.05733301  0.94436373  0.94329311    -0.68100
O13         O  0.95003087  0.05128476  0.10527260    -0.87400
C14         C  0.01750876  0.93870125  0.95159888     0.84900
C15         C  0.02460236  0.01868227  0.86977991     1.06400
H16         H  0.96988594  0.00292376  0.02884158     0.38200
O17         O  0.97411956  0.03235747  0.01981092    -1.10000
O18         O  0.02447527  0.10192354  0.02415258    -0.66700
Ni19       Ni  0.03251075  0.03858729  0.02484862     1.26300
O20         O  0.98603915  0.97007680  0.95708769    -0.66900
O21         O  0.02316052  0.03841620  0.08681538    -0.79200
C22         C  0.11991709  0.00862688  0.01412618     0.84300
O23         O  0.09215009  0.04170287  0.02726338    -0.66400
Ni24       Ni  0.92818536  0.07026444  0.05297750     1.27400
Ni25       Ni  0.98076834  0.03327893  0.95808316     1.26100
H26         H  0.04618903  0.06603441  0.95302594     0.38800
O27         O  0.97690205  0.97998011  0.49752821    -0.74700
O28         O  0.97883535  0.85351890  0.49598310    -0.74700
O29         O  0.98269227  0.91664892  0.55621749    -0.74800
O30         O  0.97341298  0.91815302  0.43542668    -0.74800
O31         O  0.04611561  0.90791220  0.41959770    -0.74800
O32         O  0.05536656  0.90931237  0.54017139    -0.74700
O33         O  0.05150140  0.84458773  0.48052257    -0.74700
O34         O  0.04938012  0.97157085  0.47955395    -0.74800
Ni35       Ni  0.97538868  0.91708912  0.49661816     1.25400
Ni36       Ni  0.05317970  0.90771627  0.47934268     1.25400
C37         C  0.01269548  0.99669563  0.48938852     0.87500
C38         C  0.01554123  0.82809202  0.48926726     0.87400
C39         C  0.02057621  0.91502026  0.56795139     0.87400
C40         C  0.00825656  0.91554311  0.40769035     0.87600
O41         O  0.51707627  0.99048904  0.09931665    -0.74700
O42         O  0.50534945  0.98576296  0.97540661    -0.74700
O43         O  0.56878556  0.00128680  0.02206923    -0.74800
O44         O  0.45305989  0.97417783  0.05200058    -0.74800
O45         O  0.42755403  0.04604736  0.05610819    -0.74800
O46         O  0.54371145  0.07326433  0.02604029    -0.74700
O47         O  0.47920191  0.05721694  0.97906129    -0.74700
O48         O  0.49099978  0.06191761  0.10271877    -0.74800
Ni49       Ni  0.51192506  0.98543874  0.03720723     1.25400
Ni50       Ni  0.48454082  0.06215723  0.04109139     1.25400
C51         C  0.50510899  0.02685962  0.12187156     0.87500
C52         C  0.49092263  0.02086532  0.95647893     0.87400
C53         C  0.57517702  0.04149009  0.01806786     0.87400
C54         C  0.42131741  0.00566520  0.05912710     0.87600
O55         O  0.05675058  0.53100426  0.95770199    -0.74700
O56         O  0.93015892  0.53293897  0.96048317    -0.74700
O57         O  0.98748812  0.59432429  0.95041002    -0.74800
O58         O  0.99999518  0.47038982  0.96722918    -0.74800
O59         O  0.98917627  0.48261358  0.03892758    -0.74800
O60         O  0.97647335  0.60709794  0.02204084    -0.74700
O61         O  0.91979422  0.54587750  0.03181433    -0.74700
O62         O  0.04642732  0.54410767  0.02900395    -0.74800
Ni63       Ni  0.99383923  0.53184593  0.95649824     1.25400
Ni64       Ni  0.98265070  0.54534701  0.03297452     1.25400
C65         C  0.07280341  0.53703606  0.99296372     0.87500
C66         C  0.90384925  0.53936473  0.99658300     0.87400
C67         C  0.98045577  0.62110139  0.98331558     0.87400
C68         C  0.99658660  0.45605615  0.00576803     0.87600
O69         O  0.00052284  0.47788470  0.54169616    -0.74700
O70         O  0.99540808  0.35199780  0.53999840    -0.74700
O71         O  0.05972526  0.40373360  0.54214642    -0.74800
O72         O  0.93638493  0.42671798  0.53904171    -0.74800
O73         O  0.94986570  0.42481613  0.46678712    -0.74800
O74         O  0.07134980  0.40093314  0.46981262    -0.74700
O75         O  0.00788459  0.35010769  0.46776500    -0.74700
O76         O  0.01441168  0.47524619  0.46948124    -0.74800
Ni77       Ni  0.99751990  0.41494612  0.54339922     1.25400
Ni78       Ni  0.01112974  0.41261099  0.46601836     1.25400
C79         C  0.00875029  0.49729865  0.50570291     0.87500
C80         C  0.00161246  0.33010718  0.50363714     0.87400
C81         C  0.08580831  0.39973434  0.50618286     0.87400
C82         C  0.92307493  0.43099244  0.50201369     0.87600
O83         O  0.60423008  0.48386337  0.43821559    -0.81200
O84         O  0.39906299  0.49108155  0.47009142    -0.65800
O85         O  0.51570597  0.51424870  0.44762449    -1.12400
C86         C  0.50233999  0.54849504  0.59445383     1.05700
O87         O  0.37388398  0.53692173  0.52704994    -0.79100
O88         O  0.43450251  0.59542759  0.51231155    -0.66600
Ni89       Ni  0.55513886  0.46967202  0.41295411     1.34900
C90         C  0.47202564  0.60798905  0.50422651     0.84500
O91         O  0.45241915  0.49967206  0.39866057    -0.79600
O92         O  0.51180419  0.45125368  0.38043944    -0.89900
C93         C  0.36862925  0.50895338  0.49842494     0.84000
O94         O  0.54495619  0.42637590  0.45524875    -0.68100
O95         O  0.46577591  0.56799151  0.58654382    -0.87400
C96         C  0.50771070  0.41430505  0.46666415     0.84900
C97         C  0.47652638  0.47273040  0.37154141     1.06400
H98         H  0.46194219  0.47864795  0.53217450     0.38200
O99         O  0.46313575  0.50669180  0.51846425    -1.10000
O100        O  0.50725783  0.58179368  0.50622774    -0.66700
Ni101      Ni  0.52188732  0.51808049  0.50775410     1.26300
O102        O  0.47229779  0.43867621  0.46127988    -0.66900
O103        O  0.52637430  0.52087603  0.56781665    -0.79200
C104        C  0.61110754  0.50841830  0.46903175     0.84300
O105        O  0.58092286  0.52802104  0.49675283    -0.66400
Ni106      Ni  0.42302248  0.55080420  0.55291357     1.27400
Ni107      Ni  0.45715249  0.50240995  0.45852243     1.26100
H108        H  0.51679702  0.54243696  0.43407821     0.38800
O109        O  0.54583593  0.56663765  0.99925611    -0.74700
O110        O  0.42236392  0.56668416  0.98853908    -0.74700
O111        O  0.47244703  0.54912236  0.05177766    -0.74800
O112        O  0.49604336  0.58385692  0.93402894    -0.74800
O113        O  0.50987165  0.51276811  0.91316431    -0.74800
O114        O  0.48718625  0.47836818  0.02979274    -0.74700
O115        O  0.43557496  0.49618368  0.96648166    -0.74700
O116        O  0.56029771  0.49635363  0.97649905    -0.74800
Ni117      Ni  0.48368236  0.56909520  0.99399296     1.25400
Ni118      Ni  0.49862377  0.49347422  0.97065576     1.25400
C119        C  0.57375639  0.53171577  0.98948387     0.87500
C120        C  0.40794633  0.53127380  0.97748024     0.87400
C121        C  0.47563601  0.50799457  0.05995947     0.87400
C122        C  0.50829595  0.55355227  0.90439211     0.87600
O123        O  0.46227496  0.08241963  0.54559616    -0.74700
O124        O  0.45686843  0.95863114  0.53855580    -0.74700
O125        O  0.45723430  0.01815921  0.60574997    -0.74800
O126        O  0.46257331  0.02387109  0.47932966    -0.74800
O127        O  0.53508663  0.00916402  0.47143286    -0.74800
O128        O  0.52978995  0.00618327  0.59820450    -0.74700
O129        O  0.52951957  0.94525020  0.53177237    -0.74700
O130        O  0.53504703  0.07012806  0.53677871    -0.74800
Ni131      Ni  0.45728114  0.02109847  0.54272889     1.25400
Ni132      Ni  0.53492379  0.00713584  0.53448651     1.25400
C133        C  0.49924196  0.09693543  0.54086513     0.87500
C134        C  0.49229450  0.93140948  0.53283095     0.87400
C135        C  0.49266173  0.01207426  0.62324954     0.87400
C136        C  0.49966253  0.01774414  0.45429449     0.87600
C137        C  0.50522045  0.36978967  0.48453596    -0.01600
C138        C  0.46468608  0.35437123  0.49365703    -0.09600
C139        C  0.46195623  0.31143038  0.50715451    -0.18400
C140        C  0.49996938  0.28201061  0.51189009     0.04000
C141        C  0.54090045  0.29829246  0.50459427     0.18200
C142        C  0.54317389  0.34177769  0.49111398    -0.19800
C143        C  0.57939861  0.27072997  0.50978453    -0.21100
C144        C  0.57833348  0.22676574  0.52040420    -0.19600
C145        C  0.53876015  0.20918263  0.52594918     0.19600
C146        C  0.49891868  0.23681027  0.52250953     0.01700
C147        C  0.45983154  0.21765112  0.52851063    -0.14400
C148        C  0.46038393  0.17286169  0.53602174    -0.12100
C149        C  0.49972592  0.14523913  0.53791543     0.01200
C150        C  0.53884970  0.16385079  0.53366870    -0.24300
H151        H  0.43474186  0.37532299  0.48952327     0.09200
H152        H  0.42954821  0.30221800  0.51299531     0.12800
H153        H  0.57473947  0.35342928  0.48477445     0.11500
H154        H  0.61068965  0.28304052  0.50479596     0.12700
H155        H  0.60881308  0.20613196  0.52337717     0.11700
H156        H  0.42822863  0.23607027  0.52666422     0.08800
H157        H  0.42960014  0.15962422  0.53911878     0.12100
H158        H  0.56951844  0.14289519  0.53514703     0.14000
C159        C  0.47519262  0.65541423  0.49730123    -0.01600
C160        C  0.51638031  0.66971511  0.48933457    -0.09600
C161        C  0.52060878  0.71446829  0.49153196    -0.18400
C162        C  0.48355617  0.74675142  0.50227301     0.04000
C163        C  0.44162886  0.73238450  0.50766261     0.18200
C164        C  0.43780241  0.68717520  0.50473058    -0.19800
C165        C  0.40384103  0.76305542  0.51780142    -0.21100
C166        C  0.40681365  0.80756726  0.52418645    -0.19600
C167        C  0.44765364  0.82257560  0.52060397     0.19600
C168        C  0.48663094  0.79250051  0.50906689     0.01700
C169        C  0.52700019  0.80942730  0.50587790    -0.14400
C170        C  0.52858586  0.85408633  0.51425251    -0.12100
C171        C  0.49017365  0.88363045  0.52591826     0.01200
C172        C  0.44973946  0.86752497  0.52881145    -0.24300
H173        H  0.54585790  0.64606697  0.48308185     0.09200
H174        H  0.55347970  0.72252234  0.48589635     0.12800
H175        H  0.40569044  0.67666173  0.51077581     0.11500
H176        H  0.37175314  0.75242456  0.52168502     0.12700
H177        H  0.37693436  0.83033386  0.53265544     0.11700
H178        H  0.55804467  0.78903775  0.49715103     0.08800
H179        H  0.56023709  0.86556344  0.51118343     0.12700
H180        H  0.41968554  0.89000732  0.53750745     0.14000
C181        C  0.46435201  0.46716094  0.32804070    -0.01600
C182        C  0.48634117  0.43278441  0.29993498    -0.09600
C183        C  0.48198783  0.43283141  0.25603428    -0.18400
C184        C  0.45627739  0.46815525  0.23883787     0.04000
C185        C  0.43107604  0.50080022  0.26829806     0.18200
C186        C  0.43471951  0.49954112  0.31254305    -0.19800
C187        C  0.40476809  0.53627051  0.25313273    -0.21100
C188        C  0.40566804  0.54206126  0.20893934    -0.19600
C189        C  0.43281612  0.51243656  0.17912295     0.19600
C190        C  0.45706750  0.47399817  0.19346912     0.01700
C191        C  0.48325195  0.44467868  0.16178604    -0.14400
C192        C  0.48781305  0.45500756  0.11811262    -0.12100
C193        C  0.46645753  0.49460212  0.10488765     0.01200
C194        C  0.43768692  0.52230185  0.13514166    -0.24300
H195        H  0.50855933  0.40673536  0.31151848     0.09200
H196        H  0.50083873  0.40593118  0.23621766     0.12800
H197        H  0.41713829  0.52598764  0.33426232     0.11500
H198        H  0.38499276  0.56085406  0.27554037     0.12700
H199        H  0.38649100  0.57093492  0.19805164     0.11700
H200        H  0.50173697  0.41428688  0.16973147     0.08800
H201        H  0.50966093  0.43283133  0.09486496     0.12100
H202        H  0.42019783  0.55242351  0.12459622     0.14000
C203        C  0.51651810  0.55864129  0.63609592    -0.01600
C204        C  0.54970529  0.53066072  0.65173726    -0.09600
C205        C  0.55768754  0.53580390  0.69428818    -0.18400
C206        C  0.53201142  0.56887363  0.72260082     0.04000
C207        C  0.50119697  0.59957805  0.70517453     0.18200
C208        C  0.49412494  0.59449216  0.66215764    -0.19800
C209        C  0.47541758  0.63333288  0.73153649    -0.21100
C210        C  0.47655920  0.63476214  0.77593936    -0.19600
C211        C  0.50346672  0.60243127  0.79475593     0.19600
C212        C  0.53318625  0.57036567  0.76811170     0.01700
C213        C  0.56010560  0.53880976  0.78859731    -0.14400
C214        C  0.55356797  0.53556454  0.83341005    -0.12100
C215        C  0.52117406  0.56440379  0.85912659     0.01200
C216        C  0.49833020  0.59967760  0.84011695    -0.24300
H217        H  0.56811338  0.50331364  0.63178994     0.09200
H218        H  0.58276766  0.51212111  0.70446428     0.12800
H219        H  0.46917097  0.61707713  0.64980046     0.11500
H220        H  0.45250651  0.65735514  0.71811503     0.12700
H221        H  0.45448793  0.65979725  0.79593348     0.11700
H222        H  0.58479123  0.51462899  0.77097503     0.08800
H223        H  0.57266004  0.50899651  0.84796442     0.12100
H224        H  0.47371803  0.62241997  0.86022109     0.14000
C225        C  0.32600868  0.49403493  0.49990267    -0.01600
C226        C  0.30233590  0.48692548  0.54010056    -0.09600
C227        C  0.26599521  0.46485000  0.54247123    -0.18400
C228        C  0.25202019  0.44983207  0.50435871     0.04000
C229        C  0.27492152  0.45948100  0.46353965     0.18200
C230        C  0.31200317  0.48081464  0.46170072    -0.19800
C231        C  0.26062123  0.44791225  0.42489465    -0.21100
C232        C  0.22293955  0.42824045  0.42598351    -0.19600
C233        C  0.19958866  0.41877800  0.46571602     0.19600
C234        C  0.21486324  0.42752205  0.50535669     0.01700
C235        C  0.19122279  0.41508139  0.54438948    -0.14400
C236        C  0.15036066  0.40146172  0.54455815    -0.12100
C237        C  0.13301898  0.39861980  0.50577121     0.01200
C238        C  0.15934756  0.40354914  0.46625521    -0.24300
H239        H  0.31317075  0.49665205  0.56994936     0.09200
H240        H  0.24941507  0.46038614  0.57454089     0.12800
H241        H  0.33039519  0.48667850  0.43055201     0.11500
H242        H  0.27794699  0.45528172  0.39373229     0.12700
H243        H  0.21146445  0.42128686  0.39565001     0.11700
H244        H  0.20251539  0.41733961  0.57540526     0.08800
H245        H  0.13118063  0.39606555  0.57534262     0.12100
H246        H  0.14677206  0.39984557  0.43583909     0.14000
C247        C  0.65665891  0.51153998  0.47389227    -0.01600
C248        C  0.66845401  0.51703592  0.51514002    -0.09600
C249        C  0.71219003  0.50868191  0.52128368    -0.18400
C250        C  0.74510881  0.49433802  0.48609532     0.04000
C251        C  0.73312549  0.49406105  0.44369058     0.18200
C252        C  0.68920104  0.50262712  0.43801636    -0.19800
C253        C  0.76470451  0.48287689  0.40740071    -0.21100
C254        C  0.80792035  0.46971146  0.41248179    -0.19600
C255        C  0.82012438  0.46646865  0.45398671     0.19600
C256        C  0.78907871  0.47886557  0.49147165     0.01700
C257        C  0.80299744  0.47325280  0.53265562    -0.14400
C258        C  0.84620862  0.45658502  0.53626646    -0.12100
C259        C  0.87664709  0.44518209  0.49906775     0.01200
C260        C  0.86325180  0.45013527  0.45811450    -0.24300
H261        H  0.64365429  0.52492626  0.54318735     0.09200
H262        H  0.71903129  0.51240787  0.55401114     0.12800
H263        H  0.68010412  0.49974400  0.40581596     0.11500
H264        H  0.75575669  0.48334250  0.37497690     0.12700
H265        H  0.83167718  0.46060244  0.38383326     0.11700
H266        H  0.78118546  0.48076877  0.56262470     0.08800
H267        H  0.85587465  0.45307696  0.56827104     0.12100
H268        H  0.88652346  0.44129968  0.42904218     0.14000
C269        C  0.85454167  0.53893309  0.99760681    -0.01600
C270        C  0.82375980  0.55700554  0.03315883    -0.09600
C271        C  0.77805373  0.55696827  0.03396832    -0.18400
C272        C  0.76073162  0.53782251  0.99948374     0.04000
C273        C  0.79180501  0.51829024  0.96425106     0.18200
C274        C  0.83754061  0.51974023  0.96323098    -0.19800
C275        C  0.77708061  0.49690996  0.93012681    -0.21100
C276        C  0.73266323  0.49406707  0.93015386    -0.19600
C277        C  0.70081736  0.51370601  0.96361022     0.19600
C278        C  0.71416525  0.53670972  0.99846366     0.01700
C279        C  0.68010899  0.55803431  0.02990491    -0.14400
C280        C  0.63529734  0.55661939  0.02667876    -0.12100
C281        C  0.62210052  0.53265798  0.99294885     0.01200
C282        C  0.65571436  0.51094705  0.96178084    -0.24300
H283        H  0.83503050  0.57179782  0.06054682     0.09200
H284        H  0.75681630  0.57160633  0.06231943     0.12800
H285        H  0.86016780  0.50495067  0.93566287     0.11500
H286        H  0.80029371  0.48169610  0.90318384     0.12700
H287        H  0.72307001  0.47676608  0.90323119     0.11700
H288        H  0.68735499  0.57686267  0.05688993     0.08800
H289        H  0.61068745  0.57407489  0.05120439     0.12100
H290        H  0.64666955  0.49292232  0.93500609     0.14000
C291        C  0.12235826  0.53583656  0.99204818    -0.01600
C292        C  0.13972450  0.55494011  0.02612950    -0.09600
C293        C  0.18538284  0.55476886  0.02535358    -0.18400
C294        C  0.21645201  0.53457937  0.99061051     0.04000
C295        C  0.19928269  0.51395749  0.95676986     0.18200
C296        C  0.15309727  0.51539069  0.95735711    -0.19800
C297        C  0.22848903  0.49175449  0.92248451    -0.21100
C298        C  0.27393573  0.48950984  0.92093757    -0.19600
C299        C  0.29226589  0.51035945  0.95301163     0.19600
C300        C  0.26370154  0.53375548  0.98808149     0.01700
C301        C  0.28389086  0.55581447  0.01845047    -0.14400
C302        C  0.32982302  0.55501479  0.01407364    -0.12100
C303        C  0.35846331  0.53124021  0.98007179     0.01200
C304        C  0.33887115  0.50841543  0.94984018    -0.24300
H305        H  0.11773738  0.57078241  0.05359239     0.09200
H306        H  0.19563523  0.57036019  0.05273510     0.12800
H307        H  0.14109195  0.49981300  0.93082781     0.11500
H308        H  0.21605238  0.47560533  0.89657938     0.12700
H309        H  0.29499137  0.47171434  0.89390222     0.11700
H310        H  0.26471430  0.57470905  0.04567397     0.08800
H311        H  0.34319602  0.57284802  0.03817396     0.12100
H312        H  0.35981586  0.49006569  0.92306329     0.14000
C313        C  0.49057329  0.01246314  0.67294437    -0.01600
C314        C  0.45025127  0.01884372  0.70088673    -0.09600
C315        C  0.44792451  0.02032617  0.74680908    -0.18400
C316        C  0.48605342  0.01547863  0.76748944     0.04000
C317        C  0.52682827  0.00869668  0.73949639     0.18200
C318        C  0.52873130  0.00731054  0.69331387    -0.19800
C319        C  0.56579228  0.00343252  0.75780599    -0.21100
C320        C  0.56543869  0.00440114  0.80279527    -0.19600
C321        C  0.52611429  0.01098647  0.83157728     0.19600
C322        C  0.48567014  0.01704867  0.81452459     0.01700
C323        C  0.44712896  0.02466383  0.84553887    -0.14400
C324        C  0.44884770  0.02632626  0.89093240    -0.12100
C325        C  0.48886476  0.01954244  0.90774698     0.01200
C326        C  0.52731499  0.01168869  0.87728010    -0.24300
H327        H  0.41995896  0.02293951  0.68716033     0.09200
H328        H  0.41572436  0.02533314  0.76558000     0.12800
H329        H  0.56035853  0.00235094  0.67311390     0.11500
H330        H  0.59709297  0.99836515  0.73704168     0.12700
H331        H  0.59647121  0.00004586  0.81522485     0.11700
H332        H  0.41515080  0.02975445  0.83540660     0.08800
H333        H  0.41850519  0.03242995  0.91311826     0.12100
H334        H  0.55859315  0.00675838  0.88924852     0.14000
C335        C  0.50605025  0.02843235  0.17087921    -0.01600
C336        C  0.47607567  0.05885055  0.19824159    -0.09600
C337        C  0.47434829  0.05934483  0.24394891    -0.18400
C338        C  0.50342709  0.02992852  0.26481811     0.04000
C339        C  0.53531918  0.00067323  0.23724566     0.18200
C340        C  0.53577842  0.99948113  0.19122763    -0.19800
C341        C  0.56661058  0.97262733  0.25590994    -0.21100
C342        C  0.56669725  0.97248566  0.30091085    -0.19600
C343        C  0.53469260  0.99941220  0.32934441     0.19600
C344        C  0.50225817  0.02829569  0.31174702     0.01700
C345        C  0.46964721  0.05325986  0.34209655    -0.14400
C346        C  0.46895499  0.04928630  0.38745824    -0.12100
C347        C  0.50129848  0.02130377  0.40513247     0.01200
C348        C  0.53455760  0.99692817  0.37522167    -0.24300
H349        H  0.45282064  0.08193740  0.18424495     0.09200
H350        H  0.44999677  0.08340254  0.26233452     0.12800
H351        H  0.55976153  0.97615313  0.17114288     0.11500
H352        H  0.59147194  0.95053666  0.23544237     0.12700
H353        H  0.59164102  0.95030242  0.31366376     0.11700
H354        H  0.44358354  0.07551584  0.33153266     0.08800
H355        H  0.44291703  0.06879443  0.40900310     0.12100
H356        H  0.55979188  0.97483994  0.38766933     0.14000
C357        C  0.01644096  0.77911302  0.49222912    -0.01600
C358        C  0.04960594  0.75014961  0.46737398    -0.09600
C359        C  0.05059553  0.70420797  0.46954607    -0.18400
C360        C  0.01877905  0.68523650  0.49762613     0.04000
C361        C  0.98637721  0.71458148  0.52438339     0.18200
C362        C  0.98489849  0.76085594  0.52079896    -0.19800
C363        C  0.95579025  0.69749430  0.55470444    -0.21100
C364        C  0.95633588  0.65201635  0.55870874    -0.19600
C365        C  0.98653344  0.62212734  0.53150940     0.19600
C366        C  0.01792455  0.63836111  0.50022136     0.01700
C367        C  0.04620976  0.60696974  0.47207537    -0.14400
C368        C  0.04294972  0.56175002  0.47433484    -0.12100
C369        C  0.01237410  0.54563671  0.50540215     0.01200
C370        C  0.98478049  0.57615870  0.53457519    -0.24300
H371        H  0.07469420  0.76312661  0.44551762     0.09200
H372        H  0.07709545  0.68430959  0.44926066     0.12800
H373        H  0.95962064  0.78276252  0.54102313     0.11500
H374        H  0.93129311  0.71951065  0.57566993     0.12700
H375        H  0.93222268  0.64014467  0.58262699     0.11700
H376        H  0.07039886  0.61649560  0.44703331     0.08800
H377        H  0.06474222  0.53906427  0.45153673     0.12100
H378        H  0.96067296  0.56427515  0.55851573     0.14000
C379        C  0.01131687  0.04559723  0.49261303    -0.01600
C380        C  0.98622250  0.06963165  0.52825430    -0.09600
C381        C  0.98435853  0.11561704  0.53219756    -0.18400
C382        C  0.00668943  0.13963757  0.49973019     0.04000
C383        C  0.03105342  0.11527305  0.46292465     0.18200
C384        C  0.03405377  0.06871776  0.46022454    -0.19800
C385        C  0.05171388  0.13762265  0.42869272    -0.21100
C386        C  0.04845308  0.18352203  0.42994190    -0.19600
C387        C  0.02556317  0.20847139  0.46604691     0.19600
C388        C  0.00510895  0.18688745  0.50193422     0.01700
C389        C  0.98442657  0.21360542  0.53847815    -0.14400
C390        C  0.98353515  0.25964859  0.53898470    -0.12100
C391        C  0.00242535  0.28101902  0.50293720     0.01200
C392        C  0.02338952  0.25491404  0.46654112    -0.24300
H393        H  0.96828729  0.05258147  0.55363598     0.09200
H394        H  0.96439943  0.13161171  0.56059346     0.12800
H395        H  0.05302249  0.05053737  0.43220171     0.11500
H396        H  0.07005378  0.11948195  0.40036625     0.12700
H397        H  0.06438393  0.19963007  0.40254324     0.11700
H398        H  0.96925719  0.19973500  0.56746531     0.08800
H399        H  0.96758396  0.27868785  0.56773839     0.12100
H400        H  0.03895621  0.27072357  0.43871720     0.14000
C401        C  0.00736216  0.89331040  0.95483040    -0.01600
C402        C  0.97392549  0.88278109  0.98615725    -0.09600
C403        C  0.96562154  0.83924099  0.99048556    -0.18400
C404        C  0.99031072  0.80501350  0.96290843     0.04000
C405        C  0.02286331  0.81655993  0.92988183     0.18200
C406        C  0.03146099  0.86021925  0.92660030    -0.19800
C407        C  0.04701699  0.78444625  0.90054538    -0.21100
C408        C  0.04032412  0.74065594  0.90384697    -0.19600
C409        C  0.01001558  0.72786863  0.93713581     0.19600
C410        C  0.98445654  0.75974728  0.96720912     0.01700
C411        C  0.95542542  0.74461554  0.00112148    -0.14400
C412        C  0.95339406  0.69959434  0.00588741    -0.12100
C413        C  0.97910439  0.66861159  0.97635810     0.01200
C414        C  0.00637428  0.68300667  0.94143099    -0.24300
H415        H  0.95481646  0.90820059  0.00807112     0.09200
H416        H  0.93969114  0.83349435  0.01560807     0.12800
H417        H  0.05683482  0.86861436  0.90177130     0.11500
H418        H  0.07150042  0.79321104  0.87504759     0.12700
H419        H  0.05983890  0.71643269  0.88087956     0.11700
H420        H  0.93500447  0.76652747  0.02530018     0.08800
H421        H  0.93194046  0.68890368  0.03299431     0.12100
H422        H  0.02668525  0.65893832  0.91879754     0.14000
C423        C  0.99880059  0.17821496  0.03495401    -0.01600
C424        C  0.02849602  0.19230471  0.00177949    -0.09600
C425        C  0.03097407  0.23722296  0.99652994    -0.18400
C426        C  0.00396277  0.26942815  0.02483412     0.04000
C427        C  0.97551091  0.25458028  0.05967087     0.18200
C428        C  0.97280391  0.20951250  0.06401499    -0.19800
C429        C  0.94955138  0.28476521  0.08984062    -0.21100
C430        C  0.95100206  0.32969054  0.08612222    -0.19600
C431        C  0.97749982  0.34554106  0.05144072     0.19600
C432        C  0.00395831  0.31573616  0.01989144     0.01700
C433        C  0.02825393  0.33368182  0.98422375    -0.14400
C434        C  0.02609308  0.37921924  0.98008506    -0.12100
C435        C  0.00052663  0.40819702  0.01166790     0.01200
C436        C  0.97679817  0.39120717  0.04756147    -0.24300
H437        H  0.04893973  0.16858393  0.97896744     0.09200
H438        H  0.05435559  0.24565561  0.97013281     0.12800
H439        H  0.95017039  0.19870624  0.09012732     0.11500
H440        H  0.92801566  0.27353091  0.11659098     0.12700
H441        H  0.93058430  0.35225464  0.11008339     0.11700
H442        H  0.04827583  0.31348032  0.95842611     0.08800
H443        H  0.04452045  0.39186852  0.95195074     0.12100
H444        H  0.95632827  0.41364633  0.07164676     0.14000
C445        C  0.84543527  0.06593733  0.97215650    -0.01600
C446        C  0.83017893  0.03557780  0.94605832    -0.09600
C447        C  0.78537091  0.03445878  0.94758553    -0.18400
C448        C  0.75450033  0.06337507  0.97602185     0.04000
C449        C  0.77033041  0.09544157  0.00075376     0.18200
C450        C  0.81523847  0.09681662  0.99810524    -0.19800
C451        C  0.74148665  0.12469067  0.02964240    -0.21100
C452        C  0.69708887  0.12163044  0.03601166    -0.19600
C453        C  0.68058077  0.08934300  0.01352466     0.19600
C454        C  0.70883616  0.06033922  0.98244699     0.01700
C455        C  0.69038097  0.02828336  0.96068135    -0.14400
C456        C  0.64653984  0.02322374  0.97169312    -0.12100
C457        C  0.61964608  0.05061231  0.00365253     0.01200
C458        C  0.63621091  0.08466481  0.02330151    -0.24300
H459        H  0.85293224  0.01160979  0.92546147     0.09200
H460        H  0.77612381  0.00964100  0.92722108     0.12800
H461        H  0.82670261  0.12066985  0.01826761     0.11500
H462        H  0.75351907  0.14927964  0.04842279     0.12700
H463        H  0.67569768  0.14389340  0.05955326     0.11700
H464        H  0.70909887  0.00581846  0.93594548     0.08800
H465        H  0.63364416  0.99732116  0.95554342     0.12100
H466        H  0.61511294  0.10590497  0.04798362     0.14000
C467        C  0.37657111  0.99555205  0.06859612    -0.01600
C468        C  0.34489684  0.02428194  0.09510818    -0.09600
C469        C  0.30074986  0.02055544  0.09633909    -0.18400
C470        C  0.28731905  0.98903534  0.06933991     0.04000
C471        C  0.32005109  0.95738934  0.04578335     0.18200
C472        C  0.36431091  0.96034983  0.04645392    -0.19800
C473        C  0.30861428  0.92531235  0.01881209    -0.21100
C474        C  0.26560000  0.92638304  0.01162437    -0.19600
C475        C  0.23335032  0.95962046  0.03119692     0.19600
C476        C  0.24322532  0.99024175  0.06182091     0.01700
C477        C  0.20925884  0.02303183  0.08071645    -0.14400
C478        C  0.16858558  0.02793703  0.06640197    -0.12100
C479        C  0.16035420  0.99980907  0.03366101     0.01200
C480        C  0.19202350  0.96428588  0.01795929    -0.24300
H481        H  0.35425511  0.05088881  0.11348564     0.09200
H482        H  0.27807885  0.04438129  0.11676144     0.12800
H483        H  0.38909911  0.93786093  0.02623661     0.11500
H484        H  0.33341338  0.90075752  0.00131258     0.12700
H485        H  0.25797479  0.90254729  0.98878855     0.11700
H486        H  0.21355696  0.04661683  0.10517220     0.08800
H487        H  0.14405028  0.05484300  0.07999499     0.12100
H488        H  0.18551941  0.94167386  0.99332753     0.14000
C489        C  0.02096299  0.01390200  0.82376992    -0.01600
C490        C  0.05753070  0.01626083  0.79277553    -0.09600
C491        C  0.05870052  0.00044614  0.75058486    -0.18400
C492        C  0.02345796  0.98075951  0.73857379     0.04000
C493        C  0.98511719  0.98156290  0.76942654     0.18200
C494        C  0.98406075  0.99848730  0.81155092    -0.19800
C495        C  0.94875538  0.96394774  0.75856753    -0.21100
C496        C  0.94960779  0.94555960  0.71744068    -0.19600
C497        C  0.98718851  0.94352895  0.68671269     0.19600
C498        C  0.02500760  0.96017211  0.69716476     0.01700
C499        C  0.06294057  0.95503016  0.66586957    -0.14400
C500        C  0.06222341  0.93724650  0.62476057    -0.12100
C501        C  0.02385766  0.92402579  0.61363661     0.01200
C502        C  0.98689648  0.92581982  0.64515615    -0.24300
H503        H  0.08613502  0.02865956  0.80174652     0.09200
H504        H  0.08799495  0.00327318  0.72852607     0.12800
H505        H  0.95574496  0.99651826  0.83569596     0.11500
H506        H  0.91947890  0.96444059  0.78200485     0.12700
H507        H  0.92079275  0.93263195  0.70968946     0.11700
H508        H  0.09355023  0.96481086  0.67188362     0.08800
H509        H  0.09131274  0.93590266  0.60096752     0.12100
H510        H  0.95726377  0.91498793  0.63685895     0.14000
C511        C  0.00504402  0.92581049  0.36200699    -0.01600
C512        C  0.04263624  0.92079486  0.33093511    -0.09600
C513        C  0.04167958  0.93885043  0.29011625    -0.18400
C514        C  0.00294649  0.96307429  0.27931037     0.04000
C515        C  0.96434162  0.96570292  0.31006791     0.18200
C516        C  0.96569449  0.94702802  0.35077657    -0.19800
C517        C  0.92477088  0.98797283  0.30053634    -0.21100
C518        C  0.92259285  0.00773158  0.26089940    -0.19600
C519        C  0.96012526  0.00646895  0.23025721     0.19600
C520        C  0.00104142  0.98480148  0.23923048     0.01700
C521        C  0.03824819  0.98628496  0.20788118    -0.14400
C522        C  0.03444267  0.00628576  0.16835670    -0.12100
C523        C  0.99355935  0.02545313  0.15875306     0.01200
C524        C  0.95675015  0.02632047  0.19036566    -0.24300
H525        H  0.07340158  0.90416133  0.33869198     0.09200
H526        H  0.07190180  0.93380910  0.26803450     0.12800
H527        H  0.93639705  0.95110971  0.37456883     0.11500
H528        H  0.89525305  0.99005815  0.32388408     0.12700
H529        H  0.89136206  0.02437058  0.25427668     0.11700
H530        H  0.07069127  0.97211312  0.21278231     0.08800
H531        H  0.06358327  0.00542721  0.14469992     0.12100
H532        H  0.92501762  0.04145088  0.18354616     0.14000
loop_ 
_geom_bond_atom_site_label_1 
_geom_bond_atom_site_label_2 
_geom_bond_distance 
_geom_bond_site_symmetry_2 
_ccdc_geom_bond_type 
O1           Ni7   1.928       .  S
O1           C22   1.271   1_566  A
O2          Ni25   1.907       .  S
O2           C11   1.269       .  A
O3           Ni7   1.899   1_545  S
O3          Ni25   1.902   1_455  S
O3          Ni19   1.899   1_556  S
O3           H26   0.963       .  S
C4           O21   1.275   1_655  A
C4           O13   1.278       .  A
C4          C523   1.477       .  S
O5          Ni24   1.916       .  S
O5           C11   1.269   1_554  A
O6          Ni24   1.903       .  S
O6            C8   1.267       .  A
Ni7          O10   1.910   1_565  S
Ni7          O12   1.902       .  S
C8           O18   1.269   1_655  A
C8          C423   1.474       .  S
O9          Ni25   1.905       .  S
O9           C15   1.275   1_655  A
O10          C15   1.276       .  A
C11         C445   1.473       .  S
O12          C14   1.267       .  A
O13         Ni24   1.918       .  S
C14          O20   1.269   1_455  A
C14         C401   1.467       .  S
C15         C489   1.460       .  S
H16          O17   0.967       .  S
O17         Ni25   1.905   1_554  S
O17         Ni19   1.883   1_655  S
O17         Ni24   1.890       .  S
O18         Ni19   1.921       .  S
Ni19         O23   1.886       .  S
Ni19         O21   1.911       .  S
O20         Ni25   1.918   1_565  S
C22          O23   1.263       .  A
C22         C479   1.469   1_545  S
O27         Ni35   1.931       .  S
O27          C37   1.284   1_655  A
O28         Ni35   1.933       .  S
O28          C38   1.284   1_655  A
O29         Ni35   1.901       .  S
O29          C39   1.279   1_655  A
O30         Ni35   1.915       .  S
O30          C40   1.282   1_655  A
O31         Ni36   1.904       .  S
O31          C40   1.279       .  A
O32         Ni36   1.905       .  S
O32          C39   1.280       .  A
O33         Ni36   1.940       .  S
O33          C38   1.286       .  A
O34         Ni36   1.942       .  S
O34          C37   1.285       .  A
Ni35        Ni36   2.386   1_655  S
C37         C379   1.493   1_565  S
C38         C357   1.499       .  S
C39         C501   1.466       .  S
C40         C511   1.475       .  S
O41         Ni49   1.969       .  S
O41          C51   1.291   1_565  A
O42         Ni49   1.963   1_556  S
O42          C52   1.290   1_565  A
O43         Ni49   1.897   1_545  S
O43          C53   1.277       .  A
O44         Ni49   1.906       .  S
O44          C54   1.278   1_565  A
O45         Ni50   1.904       .  S
O45          C54   1.279       .  A
O46         Ni50   1.915       .  S
O46          C53   1.280       .  A
O47         Ni50   1.967   1_556  S
O47          C52   1.290       .  A
O48         Ni50   1.957       .  S
O48          C51   1.289       .  A
Ni49        Ni50   2.383   1_565  S
C51         C335   1.531       .  S
C52         C325   1.528       .  S
C53         C457   1.460       .  S
C54         C467   1.460   1_545  S
O55         Ni63   1.963   1_455  S
O55          C65   1.290       .  A
O56         Ni63   1.967       .  S
O56          C66   1.291       .  A
O57         Ni63   1.910       .  S
O57          C67   1.280       .  A
O58         Ni63   1.903       .  S
O58          C68   1.278   1_556  A
O59         Ni64   1.917       .  S
O59          C68   1.281       .  A
O60         Ni64   1.913       .  S
O60          C67   1.280   1_554  A
O61         Ni64   1.962       .  S
O61          C66   1.290   1_554  A
O62         Ni64   1.969   1_455  S
O62          C65   1.292   1_554  A
Ni63        Ni64   2.381   1_556  S
C65         C291   1.536       .  S
C66         C269   1.534       .  S
C67         C413   1.468       .  S
C68         C435   1.469   1_655  S
O69         Ni77   1.942   1_455  S
O69          C79   1.285       .  A
O70         Ni77   1.938       .  S
O70          C80   1.286   1_655  A
O71         Ni77   1.918   1_455  S
O71          C81   1.283       .  A
O72         Ni77   1.915       .  S
O72          C82   1.281       .  A
O73         Ni78   1.892   1_655  S
O73          C82   1.278       .  A
O74         Ni78   1.883       .  S
O74          C81   1.275       .  A
O75         Ni78   1.930       .  S
O75          C80   1.284       .  A
O76         Ni78   1.936       .  S
O76          C79   1.285       .  A
Ni77        Ni78   2.386   1_655  S
C79         C369   1.499       .  S
C80         C391   1.499       .  S
C81         C237   1.465       .  S
C82         C259   1.470       .  S
O83         Ni89   1.912       .  S
O83         C104   1.271       .  A
O84        Ni107   1.875       .  S
O84          C93   1.262       .  A
O85         Ni89   1.918       .  S
O85        Ni107   1.893       .  S
O85        Ni101   1.912       .  S
O85         H108   0.967       .  S
C86         O103   1.266       .  A
C86          O95   1.271       .  A
C86         C203   1.470       .  S
O87        Ni106   1.920       .  S
O87          C93   1.270       .  A
O88        Ni106   1.907       .  S
O88          C90   1.273       .  A
Ni89         O92   1.934       .  S
Ni89         O94   1.905       .  S
C90         O100   1.279       .  A
C90         C159   1.484       .  S
O91        Ni107   1.892       .  S
O91          C97   1.263       .  A
O92          C97   1.270       .  A
C93         C225   1.456       .  S
O94          C96   1.270       .  A
O95        Ni106   1.927       .  S
C96         O102   1.279       .  A
C96         C137   1.485       .  S
C97         C181   1.471       .  S
H98          O99   0.966       .  S
O99        Ni107   1.906       .  S
O99        Ni101   1.894       .  S
O99        Ni106   1.916       .  S
O100       Ni101   1.944       .  S
Ni101       O105   1.890       .  S
Ni101       O103   1.896       .  S
O102       Ni107   1.950       .  S
C104        O105   1.264       .  A
C104        C247   1.464       .  S
O109       Ni117   1.958       .  S
O109        C119   1.288       .  A
O110       Ni117   1.953       .  S
O110        C120   1.288       .  A
O111       Ni117   1.908   1_554  S
O111        C121   1.281       .  A
O112       Ni117   1.925       .  S
O112        C122   1.282       .  A
O113       Ni118   1.892       .  S
O113        C122   1.277       .  A
O114       Ni118   1.901   1_554  S
O114        C121   1.277       .  A
O115       Ni118   1.978       .  S
O115        C120   1.293       .  A
O116       Ni118   1.969       .  S
O116        C119   1.292       .  A
Ni117      Ni118   2.382       .  S
C119        C281   1.530       .  S
C120        C303   1.533       .  S
C121        C193   1.463       .  S
C122        C215   1.465       .  S
O123       Ni131   1.906       .  S
O123        C133   1.280       .  A
O124       Ni131   1.916   1_565  S
O124        C134   1.280       .  A
O125       Ni131   1.965       .  S
O125        C135   1.291       .  A
O126       Ni131   1.962       .  S
O126        C136   1.290       .  A
O127       Ni132   1.964       .  S
O127        C136   1.290       .  A
O128       Ni132   1.969       .  S
O128        C135   1.291       .  A
O129       Ni132   1.925   1_565  S
O129        C134   1.284       .  A
O130       Ni132   1.929       .  S
O130        C133   1.283       .  A
Ni131      Ni132   2.377       .  S
C133        C149   1.484       .  S
C134        C171   1.487       .  S
C135        C313   1.539       .  S
C136        C347   1.530       .  S
C137        C138   1.401       .  A
C137        C142   1.406       .  A
C138        C139   1.394       .  A
C138        H151   1.083       .  S
C139        C140   1.415       .  A
C139        H152   1.077       .  S
C140        C146   1.430       .  A
C140        C141   1.421       .  A
C141        C143   1.401       .  A
C141        C142   1.408       .  A
C142        H153   1.084       .  S
C143        C144   1.393       .  A
C143        H154   1.084       .  S
C144        C145   1.400       .  A
C144        H155   1.084       .  S
C145        C146   1.423       .  A
C145        C150   1.410       .  A
C146        C147   1.412       .  A
C147        C148   1.391       .  A
C147        H156   1.076       .  S
C148        C149   1.402       .  A
C148        H157   1.083       .  S
C149        C150   1.404       .  A
C150        H158   1.084       .  S
C159        C160   1.402       .  A
C159        C164   1.404       .  A
C160        C161   1.395       .  A
C160        H173   1.083       .  S
C161        C162   1.414       .  A
C161        H174   1.077       .  S
C162        C168   1.431       .  A
C162        C163   1.423       .  A
C163        C165   1.400       .  A
C163        C164   1.407       .  A
C164        H175   1.084       .  S
C165        C166   1.391       .  A
C165        H176   1.084       .  S
C166        C167   1.401       .  A
C166        H177   1.084       .  S
C167        C168   1.422       .  A
C167        C172   1.408       .  A
C168        C169   1.415       .  A
C169        C170   1.397       .  A
C169        H178   1.077       .  S
C170        C171   1.401       .  A
C170        H179   1.083       .  S
C171        C172   1.405       .  A
C172        H180   1.084       .  S
C181        C182   1.399       .  A
C181        C186   1.399       .  A
C182        C183   1.392       .  A
C182        H195   1.083       .  S
C183        C184   1.414       .  A
C183        H196   1.077       .  S
C184        C190   1.423       .  A
C184        C185   1.422       .  A
C185        C187   1.398       .  A
C185        C186   1.399       .  A
C186        H197   1.085       .  S
C187        C188   1.386       .  A
C187        H198   1.084       .  S
C188        C189   1.398       .  A
C188        H199   1.084       .  S
C189        C190   1.422       .  A
C189        C194   1.398       .  A
C190        C191   1.414       .  A
C191        C192   1.392       .  A
C191        H200   1.077       .  S
C192        C193   1.398       .  A
C192        H201   1.084       .  S
C193        C194   1.396       .  A
C194        H202   1.085       .  S
C203        C204   1.398       .  A
C203        C208   1.401       .  A
C204        C205   1.393       .  A
C204        H217   1.083       .  S
C205        C206   1.416       .  A
C205        H218   1.077       .  S
C206        C212   1.423       .  A
C206        C207   1.420       .  A
C207        C209   1.399       .  A
C207        C208   1.398       .  A
C208        H219   1.085       .  S
C209        C210   1.388       .  A
C209        H220   1.084       .  S
C210        C211   1.398       .  A
C210        H221   1.084       .  S
C211        C212   1.425       .  A
C211        C216   1.404       .  A
C212        C213   1.411       .  A
C213        C214   1.388       .  A
C213        H222   1.077       .  S
C214        C215   1.399       .  A
C214        H223   1.084       .  S
C215        C216   1.396       .  A
C216        H224   1.085       .  S
C225        C226   1.396       .  A
C225        C230   1.396       .  A
C226        C227   1.388       .  A
C226        H239   1.084       .  S
C227        C228   1.412       .  A
C227        H240   1.077       .  S
C228        C234   1.418       .  A
C228        C229   1.423       .  A
C229        C231   1.398       .  A
C229        C230   1.396       .  A
C230        H241   1.085       .  S
C231        C232   1.386       .  A
C231        H242   1.084       .  S
C232        C233   1.399       .  A
C232        H243   1.084       .  S
C233        C234   1.418       .  A
C233        C238   1.393       .  A
C234        C235   1.414       .  A
C235        C236   1.391       .  A
C235        H244   1.078       .  S
C236        C237   1.397       .  A
C236        H245   1.083       .  S
C237        C238   1.402       .  A
C238        H246   1.085       .  S
C247        C248   1.399       .  A
C247        C252   1.397       .  A
C248        C249   1.393       .  A
C248        H261   1.084       .  S
C249        C250   1.414       .  A
C249        H262   1.078       .  S
C250        C256   1.422       .  A
C250        C251   1.422       .  A
C251        C253   1.397       .  A
C251        C252   1.395       .  A
C252        H263   1.085       .  S
C253        C254   1.385       .  A
C253        H264   1.084       .  S
C254        C255   1.398       .  A
C254        H265   1.084       .  S
C255        C256   1.420       .  A
C255        C260   1.394       .  A
C256        C257   1.415       .  A
C257        C258   1.395       .  A
C257        H266   1.077       .  S
C258        C259   1.399       .  A
C258        H267   1.083       .  S
C259        C260   1.400       .  A
C260        H268   1.085       .  S
C269        C270   1.413   1_556  A
C269        C274   1.414       .  A
C270        C271   1.421       .  A
C270        H283   1.083       .  S
C271        C272   1.421   1_554  A
C271        H284   1.079       .  S
C272        C278   1.461       .  A
C272        C273   1.425       .  A
C273        C275   1.403       .  A
C273        C274   1.428       .  A
C274        H285   1.084       .  S
C275        C276   1.399       .  A
C275        H286   1.084       .  S
C276        C277   1.402       .  A
C276        H287   1.084       .  S
C277        C278   1.426       .  A
C277        C282   1.428       .  A
C278        C279   1.421   1_556  A
C279        C280   1.421       .  A
C279        H288   1.079       .  S
C280        C281   1.412   1_554  A
C280        H289   1.083       .  S
C281        C282   1.412       .  A
C282        H290   1.084       .  S
C291        C292   1.411   1_556  A
C291        C296   1.417       .  A
C292        C293   1.419       .  A
C292        H305   1.083       .  S
C293        C294   1.421   1_554  A
C293        H306   1.079       .  S
C294        C300   1.460       .  A
C294        C295   1.424       .  A
C295        C297   1.405       .  A
C295        C296   1.432       .  A
C296        H307   1.084       .  S
C297        C298   1.403       .  A
C297        H308   1.084       .  S
C298        C299   1.405       .  A
C298        H309   1.084       .  S
C299        C300   1.427       .  A
C299        C304   1.435       .  A
C300        C301   1.418   1_556  A
C301        C302   1.416       .  A
C301        H310   1.079       .  S
C302        C303   1.410   1_554  A
C302        H311   1.083       .  S
C303        C304   1.416       .  A
C304        H312   1.084       .  S
C313        C314   1.414       .  A
C313        C318   1.416       .  A
C314        C315   1.421       .  A
C314        H327   1.083       .  S
C315        C316   1.421       .  A
C315        H328   1.079       .  S
C316        C322   1.463       .  A
C316        C317   1.426       .  A
C317        C319   1.403       .  A
C317        C318   1.431       .  A
C318        H329   1.084       .  S
C319        C320   1.399       .  A
C319        H330   1.084   1_545  S
C320        C321   1.403       .  A
C320        H331   1.084       .  S
C321        C322   1.426       .  A
C321        C326   1.429       .  A
C322        C323   1.423       .  A
C323        C324   1.422       .  A
C323        H332   1.079       .  S
C324        C325   1.410       .  A
C324        H333   1.083       .  S
C325        C326   1.412       .  A
C326        H334   1.084       .  S
C335        C336   1.410       .  A
C335        C340   1.415   1_545  A
C336        C337   1.416       .  A
C336        H349   1.083       .  S
C337        C338   1.419       .  A
C337        H350   1.079       .  S
C338        C344   1.458       .  A
C338        C339   1.425       .  A
C339        C341   1.404   1_545  A
C339        C340   1.431   1_545  A
C340        H351   1.084       .  S
C341        C342   1.402       .  A
C341        H352   1.084       .  S
C342        C343   1.404       .  A
C342        H353   1.084       .  S
C343        C344   1.425   1_565  A
C343        C348   1.431       .  A
C344        C345   1.419       .  A
C345        C346   1.416       .  A
C345        H354   1.079       .  S
C346        C347   1.410       .  A
C346        H355   1.083       .  S
C347        C348   1.415   1_545  A
C348        H356   1.084       .  S
C357        C358   1.402       .  A
C357        C362   1.409   1_455  A
C358        C359   1.405       .  A
C358        H371   1.083       .  S
C359        C360   1.417       .  A
C359        H372   1.078       .  S
C360        C366   1.441       .  A
C360        C361   1.422   1_455  A
C361        C363   1.403       .  A
C361        C362   1.417       .  A
C362        H373   1.084       .  S
C363        C364   1.397       .  A
C363        H374   1.084       .  S
C364        C365   1.402       .  A
C364        H375   1.084       .  S
C365        C366   1.424   1_655  A
C365        C370   1.419       .  A
C366        C367   1.416       .  A
C367        C368   1.403       .  A
C367        H376   1.078       .  S
C368        C369   1.402       .  A
C368        H377   1.083       .  S
C369        C370   1.408   1_455  A
C370        H378   1.084       .  S
C379        C380   1.402   1_455  A
C379        C384   1.404       .  A
C380        C381   1.404       .  A
C380        H393   1.083       .  S
C381        C382   1.416   1_655  A
C381        H394   1.078       .  S
C382        C388   1.441       .  A
C382        C383   1.425       .  A
C383        C385   1.401       .  A
C383        C384   1.416       .  A
C384        H395   1.084       .  S
C385        C386   1.394       .  A
C385        H396   1.084       .  S
C386        C387   1.401       .  A
C386        H397   1.084       .  S
C387        C388   1.422       .  A
C387        C392   1.413       .  A
C388        C389   1.417   1_455  A
C389        C390   1.405       .  A
C389        H398   1.078       .  S
C390        C391   1.404   1_655  A
C390        H399   1.083       .  S
C391        C392   1.407       .  A
C392        H400   1.084       .  S
C401        C402   1.398   1_455  A
C401        C406   1.397       .  A
C402        C403   1.396       .  A
C402        H415   1.084   1_556  S
C403        C404   1.415       .  A
C403        H416   1.077   1_556  S
C404        C410   1.427       .  A
C404        C405   1.423   1_655  A
C405        C407   1.398       .  A
C405        C406   1.400       .  A
C406        H417   1.085       .  S
C407        C408   1.386       .  A
C407        H418   1.084       .  S
C408        C409   1.398       .  A
C408        H419   1.084       .  S
C409        C410   1.422   1_455  A
C409        C414   1.399       .  A
C410        C411   1.416   1_556  A
C411        C412   1.396       .  A
C411        H420   1.077       .  S
C412        C413   1.398   1_554  A
C412        H421   1.083       .  S
C413        C414   1.397   1_655  A
C414        H422   1.085       .  S
C423        C424   1.400   1_655  A
C423        C428   1.399       .  A
C424        C425   1.397   1_554  A
C424        H437   1.083   1_554  S
C425        C426   1.416   1_556  A
C425        H438   1.078       .  S
C426        C432   1.427       .  A
C426        C427   1.421   1_455  A
C427        C429   1.398       .  A
C427        C428   1.400       .  A
C428        H439   1.085       .  S
C429        C430   1.387       .  A
C429        H440   1.084       .  S
C430        C431   1.398       .  A
C430        H441   1.084       .  S
C431        C432   1.423   1_655  A
C431        C436   1.402       .  A
C432        C433   1.414   1_554  A
C433        C434   1.394       .  A
C433        H442   1.077       .  S
C434        C435   1.399   1_556  A
C434        H443   1.084       .  S
C435        C436   1.397   1_455  A
C436        H444   1.085       .  S
C445        C446   1.399       .  A
C445        C450   1.400       .  A
C446        C447   1.396       .  A
C446        H459   1.083       .  S
C447        C448   1.417       .  A
C447        H460   1.077       .  S
C448        C454   1.425       .  A
C448        C449   1.420   1_556  A
C449        C451   1.399       .  A
C449        C450   1.397   1_554  A
C450        H461   1.084   1_556  S
C451        C452   1.386       .  A
C451        H462   1.084       .  S
C452        C453   1.397       .  A
C452        H463   1.084       .  S
C453        C454   1.425   1_554  A
C453        C458   1.401       .  A
C454        C455   1.413       .  A
C455        C456   1.391       .  A
C455        H464   1.077       .  S
C456        C457   1.397   1_556  A
C456        H465   1.084   1_545  S
C457        C458   1.394       .  A
C458        H466   1.085       .  S
C467        C468   1.396   1_565  A
C467        C472   1.396       .  A
C468        C469   1.391       .  A
C468        H481   1.084       .  S
C469        C470   1.414   1_545  A
C469        H482   1.077       .  S
C470        C476   1.422       .  A
C470        C471   1.423       .  A
C471        C473   1.398       .  A
C471        C472   1.397       .  A
C472        H483   1.085       .  S
C473        C474   1.386       .  A
C473        H484   1.084       .  S
C474        C475   1.398       .  A
C474        H485   1.084   1_554  S
C475        C476   1.421       .  A
C475        C480   1.396       .  A
C476        C477   1.414   1_565  A
C477        C478   1.392       .  A
C477        H486   1.077       .  S
C478        C479   1.399   1_545  A
C478        H487   1.083       .  S
C479        C480   1.400       .  A
C480        H488   1.085   1_554  S
C489        C490   1.397       .  A
C489        C494   1.398   1_445  A
C490        C491   1.388       .  A
C490        H503   1.084       .  S
C491        C492   1.413   1_545  A
C491        H504   1.077       .  S
C492        C498   1.420       .  A
C492        C493   1.422   1_455  A
C493        C495   1.399       .  A
C493        C494   1.399       .  A
C494        H505   1.085       .  S
C495        C496   1.388       .  A
C495        H506   1.084       .  S
C496        C497   1.399       .  A
C496        H507   1.084       .  S
C497        C498   1.421   1_655  A
C497        C502   1.398       .  A
C498        C499   1.413       .  A
C499        C500   1.389       .  A
C499        H508   1.077       .  S
C500        C501   1.398       .  A
C500        H509   1.083       .  S
C501        C502   1.399   1_455  A
C502        H510   1.085       .  S
C511        C512   1.401       .  A
C511        C516   1.400   1_455  A
C512        C513   1.395       .  A
C512        H525   1.083       .  S
C513        C514   1.414       .  A
C513        H526   1.077       .  S
C514        C520   1.426       .  A
C514        C515   1.422   1_455  A
C515        C517   1.398       .  A
C515        C516   1.400       .  A
C516        H527   1.084       .  S
C517        C518   1.387   1_565  A
C517        H528   1.084       .  S
C518        C519   1.398       .  A
C518        H529   1.084       .  S
C519        C520   1.422   1_645  A
C519        C524   1.400       .  A
C520        C521   1.413       .  A
C521        C522   1.394   1_565  A
C521        H530   1.077       .  S
C522        C523   1.403   1_455  A
C522        H531   1.083       .  S
C523        C524   1.400       .  A
C524        H532   1.084       .  S
