geometry optimzed in LAMMPS
_audit_creation_date              2020-11-30 
_audit_creation_method            'lammps2cif' 
_symmetry_space_group_name_H-M    'P1' 
_symmetry_Int_Tables_number       1 
_symmetry_cell_setting            triclinic 
loop_ 
_symmetry_equiv_pos_as_xyz 
  x,y,z 
_cell_length_a                    58.85891701 
_cell_length_b                    38.85072186660971 
_cell_length_c                    39.59580153541912 
_cell_angle_alpha                 89.96185155367584 
_cell_angle_beta                  89.66949650853957 
_cell_angle_gamma                 90.05714996123268 
loop_ 
_atom_site_label 
_atom_site_type_symbol 
_atom_site_fract_x 
_atom_site_fract_y 
_atom_site_fract_z 
_atom_site_charge 
C1          C  0.98833183  0.46145605  0.74342530     0.02800
C2          C  0.01119236  0.46048773  0.73211652     0.02800
C3          C  0.02331112  0.49146755  0.72840621    -0.17700
C4          C  0.01314271  0.02414257  0.73904639     0.02800
C5          C  0.98959419  0.02553489  0.74658642     0.02800
C6          C  0.97718542  0.99465172  0.75033521    -0.17700
H7          H  0.95926586  0.99601728  0.75673943     0.04800
H8          H  0.04098846  0.49026688  0.72072487     0.04800
C9          C  0.13883122  0.23444317  0.68926158     0.87000
C10         C  0.12266445  0.20597364  0.70104227    -0.53200
C11         C  0.11006372  0.21375365  0.72879451     0.10000
C12         C  0.11489112  0.25014608  0.74287069     0.20900
C13         C  0.12367604  0.26618786  0.68451686    -0.53900
C14         C  0.11099634  0.27444077  0.71255398     0.10100
C15         C  0.15330240  0.24245068  0.72029119    -0.53500
C16         C  0.14094794  0.25123176  0.74840268     0.10600
H17         H  0.12117934  0.18121359  0.68849312     0.15100
H18         H  0.10478518  0.25662035  0.76576548     0.00900
H19         H  0.12286824  0.28028490  0.66089417     0.15400
H20         H  0.17175160  0.24243522  0.71964786     0.15200
C21         C  0.85938772  0.23739925  0.79900837     0.87000
C22         C  0.87713697  0.20915223  0.79509181    -0.53200
C23         C  0.89175623  0.21330185  0.76870575     0.10000
C24         C  0.88724845  0.24654786  0.74817250     0.20900
C25         C  0.87340941  0.27084222  0.80157982    -0.53900
C26         C  0.88824172  0.27554604  0.77486434     0.10100
C27         C  0.84760476  0.23950074  0.76484149    -0.53500
C28         C  0.86187485  0.24501879  0.73819737     0.10600
H29         H  0.87807243  0.18741795  0.81233623     0.15100
H30         H  0.89899326  0.25026155  0.72643504     0.00900
H31         H  0.87194940  0.28855863  0.82263608     0.15400
H32         H  0.82922890  0.23888518  0.76230945     0.15200
C33         C  0.63777511  0.01006365  0.81104952     0.87000
C34         C  0.62038018  0.03860005  0.80570767    -0.53200
C35         C  0.60655825  0.03455133  0.77862108     0.10000
C36         C  0.61118699  0.49575161  0.76034863     0.20900
C37         C  0.62088537  0.47072903  0.81508231    -0.53900
C38         C  0.60797146  0.46655318  0.78655053     0.10100
C39         C  0.64966272  0.50198863  0.78267390    -0.53500
C40         C  0.63725399  0.49691786  0.75402888     0.10600
H41         H  0.61886517  0.06051290  0.82257528     0.15100
H42         H  0.60109872  0.49287724  0.73698935     0.00900
H43         H  0.62035152  0.45294061  0.83623344     0.15400
H44         H  0.66811225  0.50251644  0.78264766     0.15200
C45         C  0.50667401  0.28146300  0.76317945     0.02800
C46         C  0.48448109  0.28314595  0.74980475     0.02800
C47         C  0.47274545  0.25234618  0.74318730    -0.17700
C48         C  0.48247093  0.21966795  0.74893405     0.02800
C49         C  0.50495606  0.21809898  0.76117643     0.02800
C50         C  0.51649555  0.24896426  0.76870963    -0.17700
H51         H  0.53386891  0.24770521  0.77755494     0.04800
H52         H  0.45539770  0.25416715  0.73447145     0.04800
C53         C  0.36129232  0.99782215  0.68081813     0.87000
C54         C  0.37436131  0.03047992  0.68972873    -0.53200
C55         C  0.38797982  0.02779185  0.71733256     0.10000
C56         C  0.38397905  0.49879863  0.74041406     0.20900
C57         C  0.37472993  0.47525939  0.68486834    -0.53900
C58         C  0.38796606  0.47100540  0.71309082     0.10100
C59         C  0.34514722  0.50234916  0.71885936    -0.53500
C60         C  0.35798164  0.49739058  0.74715591     0.10600
H61         H  0.37327240  0.05382115  0.67468060     0.15100
H62         H  0.39448555  0.49545016  0.76336964     0.00900
H63         H  0.37542787  0.45835195  0.66310372     0.15400
H64         H  0.32669948  0.50154728  0.71914782     0.15200
O65         O  0.27948681  0.37387708  0.93604194    -0.73900
O66         O  0.24277211  0.32896305  0.00375761    -0.73900
O67         O  0.24216166  0.33228170  0.93492906    -0.74000
O68         O  0.27992417  0.37033599  0.00423078    -0.74000
O69         O  0.25768910  0.41668979  0.00699327    -0.73900
O70         O  0.21937076  0.37801883  0.93780873    -0.73900
O71         O  0.22009105  0.37487503  0.00613362    -0.73900
O72         O  0.25658861  0.41954401  0.93820655    -0.74000
Ni73       Ni  0.26183682  0.34971277  0.96963406     1.25400
Ni74       Ni  0.23765357  0.39895491  0.97245342     1.25400
C75         C  0.27403856  0.40410960  0.92598908     0.88300
C76         C  0.22534979  0.34449137  0.01595247     0.88200
C77         C  0.22454883  0.34873299  0.92497764     0.88300
C78         C  0.27526511  0.39992109  0.01672725     0.88400
C79         C  0.01100901  0.47774821  0.26368104     0.02800
C80         C  0.98870963  0.47667803  0.27674922     0.02800
C81         C  0.97864897  0.00559480  0.28408398    -0.17700
C82         C  0.98935915  0.03809092  0.28112612     0.02800
C83         C  0.01127045  0.03947948  0.26587577     0.02800
C84         C  0.02191293  0.00863442  0.25617572    -0.17700
H85         H  0.03912349  0.00985556  0.24641806     0.04800
H86         H  0.96144471  0.00376970  0.29354525     0.04800
C87         C  0.13489029  0.26192692  0.19298380     0.87000
C88         C  0.14971844  0.25501312  0.22396304    -0.53200
C89         C  0.13773456  0.25225657  0.25350146     0.10000
C90         C  0.11191278  0.25701820  0.24952386     0.20900
C91         C  0.11714928  0.23268651  0.19320165    -0.53900
C92         C  0.10521135  0.22984142  0.22302819     0.10100
C93         C  0.12157105  0.29425091  0.20226607    -0.53500
C94         C  0.10916976  0.29182875  0.23129810     0.10600
H95         H  0.16798958  0.25134723  0.22258319     0.15100
H96         H  0.10251785  0.25541413  0.27378682     0.00900
H97         H  0.11468227  0.21540108  0.17200008     0.15400
H98         H  0.12152510  0.31712325  0.18646842     0.15200
C99         C  0.86680388  0.24208311  0.25069404     0.87000
C100        C  0.85126434  0.25304976  0.28002857    -0.53200
C101        C  0.86252966  0.26223782  0.30865351     0.10000
C102        C  0.88866273  0.25963768  0.30532172     0.20900
C103        C  0.88341175  0.27231665  0.24554416    -0.53900
C104        C  0.89476465  0.28169338  0.27424975     0.10100
C105        C  0.88132042  0.21315103  0.26543194    -0.53500
C106        C  0.89309102  0.22233840  0.29356038     0.10600
H107        H  0.83285349  0.25356175  0.27838850     0.15100
H108        H  0.89807145  0.26684970  0.32850671     0.00900
H109        H  0.88574612  0.28531060  0.22148372     0.15400
H110        H  0.88329102  0.18815503  0.25347158     0.15200
C111        C  0.64037032  0.99914131  0.24483743     0.87000
C112        C  0.64945528  0.50028360  0.28478576    -0.53200
C113        C  0.63589535  0.49333334  0.31205133     0.10000
C114        C  0.61043318  0.49016299  0.30339431     0.20900
C115        C  0.62343787  0.46847043  0.24875255    -0.53900
C116        C  0.60959136  0.46197794  0.27598488     0.10100
C117        C  0.62330413  0.02796718  0.25187011    -0.53500
C118        C  0.60989303  0.02254264  0.27942678     0.10600
H119        H  0.66780315  0.50245055  0.28666653     0.15100
H120        H  0.59936168  0.48512153  0.32564305     0.00900
H121        H  0.62469855  0.45132062  0.22717828     0.15400
H122        H  0.62119382  0.05017883  0.23549151     0.15200
C123        C  0.37002552  0.48312134  0.18810498     0.87000
C124        C  0.35414321  0.48569922  0.21872255    -0.53200
C125        C  0.36109898  0.99320981  0.24460186     0.10000
C126        C  0.38725144  0.99358349  0.24124904     0.20900
C127        C  0.38076894  0.01849089  0.18542692    -0.53900
C128        C  0.39213856  0.02250945  0.21549027     0.10100
C129        C  0.38657806  0.45425006  0.19696789    -0.53500
C130        C  0.39777727  0.45841214  0.22660624     0.10600
H131        H  0.33574901  0.48578428  0.21655017     0.15100
H132        H  0.39591121  0.99649222  0.26582663     0.00900
H133        H  0.38237698  0.03644553  0.16453051     0.15400
H134        H  0.38966775  0.43230448  0.18060365     0.15200
C135        C  0.49153471  0.27216151  0.27148240     0.02800
C136        C  0.51448348  0.26823388  0.28070956     0.02800
C137        C  0.52314004  0.23489214  0.28545744    -0.17700
C138        C  0.50983875  0.20544348  0.27937189     0.02800
C139        C  0.48717340  0.20940340  0.26810452     0.02800
C140        C  0.47827757  0.24281876  0.26504144    -0.17700
H141        H  0.46082219  0.24618317  0.25708540     0.04800
H142        H  0.54078810  0.23181095  0.29257541     0.04800
O143        O  0.78279953  0.12423618  0.99210776    -0.73900
O144        O  0.75110395  0.07709093  0.06332225    -0.73900
O145        O  0.74812567  0.07878021  0.99466234    -0.74000
O146        O  0.78625352  0.12281741  0.06059590    -0.74000
O147        O  0.76065236  0.16474847  0.06629382    -0.73900
O148        O  0.72452403  0.12363021  0.99692175    -0.73900
O149        O  0.72549747  0.11942006  0.06461885    -0.73900
O150        O  0.75958768  0.16928387  0.99791242    -0.74000
Ni151      Ni  0.76800308  0.09917504  0.02762824     1.25400
Ni152      Ni  0.74174375  0.14586836  0.03160720     1.25400
C153        C  0.77633925  0.15437483  0.98328141     0.88300
C154        C  0.73262714  0.09013521  0.07483307     0.88200
C155        C  0.73011461  0.09422586  0.98477852     0.88300
C156        C  0.77954349  0.15081199  0.07456064     0.88400
O157        O  0.24122484  0.16154841  0.43062812    -0.73900
O158        O  0.27869716  0.11574872  0.49555434    -0.73900
O159        O  0.27738706  0.11760641  0.42758617    -0.74000
O160        O  0.24269161  0.15975313  0.49894106    -0.74000
O161        O  0.21904720  0.11482798  0.49880595    -0.73900
O162        O  0.25345098  0.07304370  0.42733217    -0.73900
O163        O  0.25472719  0.07118893  0.49603003    -0.73900
O164        O  0.21735941  0.11688214  0.43094167    -0.74000
Ni165      Ni  0.26084269  0.14028100  0.46313043     1.25400
Ni166      Ni  0.23533627  0.09236251  0.46320943     1.25400
C167        C  0.22289073  0.14702948  0.42067601     0.88300
C168        C  0.27283743  0.08595603  0.50643576     0.88200
C169        C  0.27131475  0.08821287  0.41607396     0.88300
C170        C  0.22506480  0.14419791  0.51043537     0.88400
O171        O  0.71953112  0.37601366  0.56681011    -0.73900
O172        O  0.75389444  0.33618081  0.49348713    -0.73900
O173        O  0.75589151  0.33267561  0.56190833    -0.74000
O174        O  0.71744136  0.37913954  0.49881485    -0.74000
O175        O  0.74079341  0.42439219  0.49907465    -0.73900
O176        O  0.77961038  0.37748313  0.56216130    -0.73900
O177        O  0.77734497  0.38129874  0.49419679    -0.73900
O178        O  0.74323903  0.42081477  0.56760926    -0.74000
Ni179      Ni  0.73588240  0.35439458  0.53025758     1.25400
Ni180      Ni  0.76105179  0.40264374  0.53077142     1.25400
C181        C  0.72558390  0.40517581  0.57897785     0.88300
C182        C  0.77149645  0.35203757  0.48213462     0.88200
C183        C  0.77420232  0.34712901  0.57207196     0.88300
C184        C  0.72263657  0.40946779  0.48877727     0.88400
C185        C  0.32120082  0.01287512  0.30813043     0.30300
C186        C  0.29967173  0.01331784  0.32365507    -0.36000
C187        C  0.29672925  0.03711680  0.34999531     0.16300
C188        C  0.31372615  0.05925071  0.36011786     0.22100
C189        C  0.33539105  0.05834553  0.34503086    -0.34100
C190        C  0.33842306  0.03422705  0.31898140     0.16200
O191        O  0.32713069  0.99453640  0.28144485    -0.26200
C192        C  0.34860131  0.00369811  0.27548622     0.06000
C193        C  0.35655818  0.02816810  0.29821963    -0.31000
O194        O  0.30698798  0.08036990  0.38428916    -0.22900
C195        C  0.28545576  0.07141708  0.39002223    -0.02900
C196        C  0.27819525  0.04451483  0.36952452    -0.17300
H197        H  0.28600788  0.99679558  0.31527016     0.20700
H198        H  0.34882264  0.07568066  0.35264774     0.19100
H199        H  0.37276274  0.04137453  0.29795199     0.19000
H200        H  0.26160090  0.03251074  0.36884083     0.14900
C201        C  0.46439624  0.35277525  0.27132939     0.30300
C202        C  0.45307215  0.38155812  0.28520078    -0.36000
C203        C  0.43980367  0.40098537  0.26259765     0.16300
C204        C  0.43810324  0.39243498  0.22889728     0.22100
C205        C  0.44958754  0.36430643  0.21506212    -0.34100
C206        C  0.46258469  0.34499342  0.23745096     0.16200
O207        O  0.47590533  0.32901304  0.28799319    -0.26200
C208        C  0.48146462  0.30612133  0.26423254     0.06000
C209        C  0.47362597  0.31482894  0.23243454    -0.31000
O210        O  0.42369911  0.41188966  0.21260023    -0.22900
C211        C  0.41583295  0.43363279  0.23573676    -0.02900
C212        C  0.42539516  0.42838594  0.26750382    -0.17300
H213        H  0.45378412  0.38749257  0.31187102     0.20700
H214        H  0.44769682  0.35709008  0.18882573     0.19100
H215        H  0.47477541  0.29994477  0.20938348     0.19000
H216        H  0.42153946  0.44159954  0.29088704     0.14900
C217        C  0.45689344  0.13121898  0.26014233     0.30300
C218        C  0.45011403  0.09766434  0.26869155    -0.36000
C219        C  0.43345753  0.08274868  0.24804800     0.16300
C220        C  0.42414646  0.09942278  0.22067179     0.22100
C221        C  0.43093638  0.13303413  0.21210754    -0.34100
C222        C  0.44748345  0.14808406  0.23293545     0.16200
O223        O  0.47209554  0.15014289  0.27613938    -0.26200
C224        C  0.47242795  0.17968164  0.25903284     0.06000
C225        C  0.45736757  0.17978350  0.23195400    -0.31000
O226        O  0.40863680  0.08057951  0.20512786    -0.22900
C227        C  0.40790059  0.05147175  0.22296452    -0.02900
C228        C  0.42310810  0.05150921  0.24985796    -0.17300
H229        H  0.45720812  0.08419325  0.29010699     0.20700
H230        H  0.42370172  0.14662007  0.19087088     0.19100
H231        H  0.45431120  0.20020901  0.21394700     0.19000
H232        H  0.42629088  0.03151704  0.26823438     0.14900
C233        C  0.67940373  0.43547939  0.43357254     0.30300
C234        C  0.65914025  0.43187699  0.41527241    -0.36000
C235        C  0.65526413  0.45658068  0.39004381     0.16300
C236        C  0.67043215  0.48280985  0.38314941     0.22100
C237        C  0.69036959  0.48694851  0.40205223    -0.34100
C238        C  0.69419525  0.46235102  0.42734457     0.16200
O239        O  0.68728540  0.41376387  0.45630266    -0.26200
C240        C  0.70732246  0.42697747  0.46495122     0.06000
C241        C  0.71242412  0.45739300  0.44792993    -0.31000
O242        O  0.66496110  0.50033422  0.35585787    -0.22900
C243        C  0.64578859  0.48566961  0.34543797    -0.02900
C244        C  0.63881260  0.45848654  0.36592853    -0.17300
H245        H  0.64769526  0.41044278  0.41941387     0.20700
H246        H  0.70259410  0.50698174  0.39633812     0.19100
H247        H  0.72775305  0.47271799  0.44941335     0.19000
H248        H  0.62486419  0.44081912  0.36182923     0.14900
C249        C  0.69015542  0.05278965  0.12493935     0.30300
C250        C  0.66779352  0.04586856  0.13534432    -0.36000
C251        C  0.66538833  0.02769211  0.16574272     0.16300
C252        C  0.68371014  0.01767715  0.18495386     0.22100
C253        C  0.70611274  0.02362534  0.17398897    -0.34100
C254        C  0.70854142  0.04127629  0.14324471     0.16200
O255        O  0.69625368  0.07134238  0.09854624    -0.26200
C256        C  0.71883376  0.07112038  0.09951125     0.06000
C257        C  0.72748756  0.05256330  0.12656837    -0.31000
O258        O  0.67750758  0.00488945  0.21445779    -0.22900
C259        C  0.65488706  0.00615863  0.21398163    -0.02900
C260        C  0.64644297  0.01946752  0.18388346    -0.17300
H261        H  0.65327839  0.05506244  0.12131842     0.20700
H262        H  0.72061386  0.01615995  0.18898835     0.19100
H263        H  0.74507944  0.04925007  0.13368105     0.19000
H264        H  0.62894981  0.02495566  0.17755315     0.14900
C265        C  0.54349070  0.13410097  0.30054741     0.30300
C266        C  0.55988504  0.11602602  0.31919694    -0.36000
C267        C  0.56914388  0.08671430  0.30360728     0.16300
C268        C  0.56278497  0.07628567  0.27170993     0.22100
C269        C  0.54611394  0.09392500  0.25338580    -0.34100
C270        C  0.53676668  0.12298777  0.26906203     0.16200
O271        O  0.53422879  0.16383798  0.30886050    -0.26200
C272        C  0.52105183  0.17154278  0.28267612     0.06000
C273        C  0.52204157  0.14704845  0.25709553    -0.31000
O274        O  0.57545730  0.05098807  0.26015673    -0.22900
C275        C  0.58986748  0.04450538  0.28511888    -0.02900
C276        C  0.58671605  0.06580408  0.31295639    -0.17300
H277        H  0.56574647  0.12507495  0.34348148     0.20700
H278        H  0.54154010  0.08644638  0.22798722     0.19100
H279        H  0.51422814  0.14800541  0.23243076     0.19000
H280        H  0.59713144  0.06766359  0.33531908     0.14900
C281        C  0.58223894  0.38149004  0.27018298     0.30300
C282        C  0.57903424  0.34746386  0.25922060    -0.36000
C283        C  0.55922631  0.33097871  0.27082400     0.16300
C284        C  0.54344215  0.34697538  0.29137382     0.22100
C285        C  0.54681179  0.38083884  0.30271968    -0.34100
C286        C  0.56678718  0.39716687  0.29150581     0.16200
O287        O  0.59928391  0.40199850  0.26182553    -0.26200
C288        C  0.59487281  0.43109051  0.27838820     0.06000
C289        C  0.57489604  0.42947203  0.29734296    -0.31000
O290        O  0.52566600  0.32722150  0.29795660    -0.22900
C291        C  0.53028278  0.29797712  0.28180495    -0.02900
C292        C  0.55099102  0.29884881  0.26463213    -0.17300
H293        H  0.59104541  0.33481967  0.24257626     0.20700
H294        H  0.53461307  0.39367346  0.31891196     0.19100
H295        H  0.56712494  0.44946528  0.31249642     0.19000
H296        H  0.55850312  0.27899467  0.24900098     0.14900
C297        C  0.82273419  0.28046742  0.37278436     0.30300
C298        C  0.80154090  0.27870202  0.38929319    -0.36000
C299        C  0.79786625  0.30268290  0.41529106     0.16300
C300        C  0.81389474  0.32691425  0.42420448     0.22100
C301        C  0.83525315  0.32823360  0.40811352    -0.34100
C302        C  0.83903010  0.30401309  0.38235369     0.16200
O303        O  0.82913269  0.26209154  0.34639595    -0.26200
C304        C  0.84996916  0.27353464  0.33922445     0.06000
C305        C  0.85711274  0.29943578  0.36097991    -0.31000
O306        O  0.80663128  0.34759217  0.44841437    -0.22900
C307        C  0.78573327  0.33632972  0.45541385    -0.02900
C308        C  0.77940651  0.30829911  0.43564394    -0.17300
H309        H  0.78864275  0.26035434  0.38191330     0.20700
H310        H  0.84791428  0.34720507  0.41485405     0.19100
H311        H  0.87273193  0.31413296  0.35987663     0.19000
H312        H  0.76348211  0.29434035  0.43603189     0.14900
C313        C  0.82171225  0.18135766  0.12966521     0.30300
C314        C  0.84362925  0.18495945  0.14324691    -0.36000
C315        C  0.84536931  0.20559881  0.17229785     0.16300
C316        C  0.82677241  0.22110291  0.18718905     0.22100
C317        C  0.80502446  0.21820127  0.17318260    -0.34100
C318        C  0.80333376  0.19800166  0.14398185     0.16200
O319        O  0.81591793  0.16229180  0.10341837    -0.26200
C320        C  0.79359923  0.16728309  0.10068027     0.06000
C321        C  0.78492333  0.18940064  0.12513892    -0.31000
O322        O  0.83181937  0.23665680  0.21575683    -0.22900
C323        C  0.85404937  0.23154947  0.21924105    -0.02900
C324        C  0.86345491  0.21283874  0.19254156    -0.17300
H325        H  0.85819995  0.17199197  0.13238080     0.20700
H326        H  0.79032386  0.23018235  0.18474395     0.19100
H327        H  0.76746445  0.19730451  0.12893665     0.19000
H328        H  0.88081066  0.20410476  0.18962206     0.14900
C329        C  0.15727553  0.20971066  0.32562548     0.30300
C330        C  0.15847491  0.18220238  0.34858344    -0.36000
C331        C  0.17872095  0.17953873  0.36698820     0.16300
C332        C  0.19636002  0.20275840  0.36357200     0.22100
C333        C  0.19508921  0.23035616  0.34085303    -0.34100
C334        C  0.17508743  0.23259351  0.32196428     0.16200
O335        O  0.14101513  0.21505046  0.30340651    -0.26200
C336        C  0.14864688  0.24146492  0.28516281     0.06000
C337        C  0.16971538  0.25345483  0.29562618    -0.31000
O338        O  0.21408601  0.19460475  0.38212915    -0.22900
C339        C  0.20785520  0.16557805  0.39741016    -0.02900
C340        C  0.18599270  0.15500193  0.38902146    -0.17300
H341        H  0.14500739  0.16333428  0.35082877     0.20700
H342        H  0.20913048  0.24798487  0.33710387     0.19100
H343        H  0.18013020  0.27328771  0.28413838     0.19000
H344        H  0.17694180  0.13231164  0.39755929     0.14900
C345        C  0.07733948  0.36736230  0.23510813     0.30300
C346        C  0.07066406  0.39944453  0.22298390    -0.36000
C347        C  0.05171072  0.41390922  0.23857602     0.16300
C348        C  0.04006148  0.39828587  0.26471058     0.22100
C349        C  0.04668402  0.36562885  0.27680173    -0.34100
C350        C  0.06580334  0.35082434  0.26085640     0.16200
O351        O  0.09422494  0.34926876  0.22299042    -0.26200
C352        C  0.09383195  0.32034330  0.24080402     0.06000
C353        C  0.07650114  0.31972690  0.26504267    -0.31000
O354        O  0.02344016  0.41791137  0.27644405    -0.22900
C355        C  0.02458879  0.44620513  0.25728833    -0.02900
C356        C  0.04173574  0.44466374  0.23309023    -0.17300
H357        H  0.07967872  0.41226894  0.20264947     0.20700
H358        H  0.03768268  0.35282705  0.29714840     0.19100
H359        H  0.07190089  0.29907767  0.28211824     0.19000
H360        H  0.04669720  0.46389826  0.21467844     0.14900
C361        C  0.06978161  0.15666421  0.22322059     0.30300
C362        C  0.06055666  0.12611134  0.21040674    -0.36000
C363        C  0.04595526  0.10797219  0.23214945     0.16300
C364        C  0.04076578  0.11884337  0.26444148     0.22100
C365        C  0.04992984  0.14959870  0.27724468    -0.34100
C366        C  0.06452772  0.16787030  0.25537300     0.16200
O367        O  0.08433406  0.17706751  0.20748845    -0.26200
C368        C  0.08852975  0.20189243  0.22975206     0.06000
C369        C  0.07657256  0.19745347  0.26001922    -0.31000
O370        O  0.02740763  0.09690676  0.28075337    -0.22900
C371        C  0.02380317  0.07188911  0.25835851    -0.02900
C372        C  0.03503685  0.07753642  0.22779967    -0.17300
H373        H  0.06472521  0.11685123  0.18535603     0.20700
H374        H  0.04622187  0.15840343  0.30260771     0.19100
H375        H  0.07689939  0.21312622  0.28255827     0.19000
H376        H  0.03549844  0.06103896  0.20578314     0.14900
C377        C  0.92607604  0.15210416  0.31618101     0.30300
C378        C  0.92916675  0.11702492  0.32312037    -0.36000
C379        C  0.94954374  0.10250331  0.31144866     0.16300
C380        C  0.96576084  0.12102600  0.29403044     0.22100
C381        C  0.96308134  0.15644707  0.28818718    -0.34100
C382        C  0.94272956  0.17111853  0.30003095     0.16200
O383        O  0.90680710  0.16914428  0.31931546    -0.26200
C384        C  0.91131201  0.19986315  0.30599822     0.06000
C385        C  0.93344839  0.20258755  0.29378381    -0.31000
O386        O  0.98209802  0.10130122  0.28179095    -0.22900
C387        C  0.97654329  0.06960456  0.29179477    -0.02900
C388        C  0.95643869  0.06917776  0.31079315    -0.17300
H389        H  0.91592159  0.10157419  0.33466450     0.20700
H390        H  0.97531880  0.17104942  0.27352818     0.19100
H391        H  0.94054973  0.22301620  0.27838219     0.19000
H392        H  0.94742837  0.04752815  0.32161427     0.14900
C393        C  0.96125943  0.39691304  0.26426405     0.30300
C394        C  0.95424365  0.36795234  0.24577041    -0.36000
C395        C  0.93761855  0.34708907  0.26111242     0.16300
C396        C  0.92890296  0.35371689  0.29287030     0.22100
C397        C  0.93592185  0.38269995  0.31136561    -0.34100
C398        C  0.95215977  0.40402556  0.29567350     0.16200
O399        O  0.97567610  0.42083181  0.25392964    -0.26200
C400        C  0.97574759  0.44381866  0.27891066     0.06000
C401        C  0.96133360  0.43469953  0.30550221    -0.31000
O402        O  0.91312460  0.33127623  0.30200593    -0.22900
C403        C  0.91139646  0.31034222  0.27550632    -0.02900
C404        C  0.92626369  0.31894607  0.24934236    -0.17300
H405        H  0.96079647  0.36263152  0.22072366     0.20700
H406        H  0.92874096  0.38873703  0.33587215     0.19100
H407        H  0.95785602  0.44892187  0.32844536     0.19000
H408        H  0.92824093  0.30644846  0.22508466     0.14900
C409        C  0.17606196  0.27463198  0.12816070     0.30300
C410        C  0.19816702  0.27734044  0.11476559    -0.36000
C411        C  0.20048320  0.29664624  0.08490750     0.16300
C412        C  0.18235589  0.31277108  0.06964641     0.22100
C413        C  0.16015762  0.30913020  0.08243544    -0.34100
C414        C  0.15779092  0.28919771  0.11187496     0.16200
O415        O  0.17040300  0.26119037  0.15770621    -0.26200
C416        C  0.14808102  0.26654528  0.16021474     0.06000
C417        C  0.13930186  0.28316931  0.13188404    -0.31000
O418        O  0.18863425  0.33178479  0.04352084    -0.22900
C419        C  0.21102981  0.32720226  0.04154895    -0.02900
C420        C  0.21930759  0.30537147  0.06649374    -0.17300
H421        H  0.21267277  0.26624388  0.12741406     0.20700
H422        H  0.14582618  0.32186630  0.07086373     0.19100
H423        H  0.12217264  0.29249733  0.12817727     0.19000
H424        H  0.23676085  0.29808348  0.07110027     0.14900
C425        C  0.30595193  0.44897042  0.07624233     0.30300
C426        C  0.31111617  0.47721046  0.09728030    -0.36000
C427        C  0.33061101  0.47386728  0.11757247     0.16300
C428        C  0.34399346  0.44477580  0.11690115     0.22100
C429        C  0.33896766  0.41682244  0.09586894    -0.34100
C430        C  0.31954344  0.42007641  0.07589817     0.16200
O431        O  0.28832641  0.44595192  0.05575068    -0.26200
C432        C  0.29076384  0.41467471  0.04225074     0.06000
C433        C  0.30989091  0.39751978  0.05400033    -0.31000
O434        O  0.36017600  0.44550302  0.13962098    -0.22900
C435        C  0.35739148  0.47539300  0.15557926    -0.05700
C436        C  0.33933354  0.49445173  0.14252871    -0.17300
H437        H  0.30038786  0.49978716  0.09838183     0.20700
H438        H  0.34915465  0.39363893  0.09585043     0.19100
H439        H  0.31584290  0.37204952  0.04730633     0.19000
H440        H  0.32520451  0.01599029  0.15096635     0.14900
C441        C  0.31555689  0.43436024  0.86877523     0.30300
C442        C  0.33699014  0.43621405  0.85285995    -0.36000
C443        C  0.33882719  0.45908471  0.82538996     0.16300
C444        C  0.32069161  0.47834034  0.81415683     0.22100
C445        C  0.29945139  0.47697572  0.83040381    -0.34100
C446        C  0.29771460  0.45453081  0.85804829     0.16200
O447        O  0.30970687  0.41380591  0.89402958    -0.26200
C448        C  0.28793310  0.42135638  0.89982402     0.06000
C449        C  0.27964413  0.44662524  0.87827656    -0.31000
O450        O  0.32543203  0.49550464  0.78627147    -0.22900
C451        C  0.34703299  0.48773890  0.77962667    -0.02900
C452        C  0.35633864  0.46536212  0.80332699    -0.17300
H453        H  0.35108537  0.42035326  0.86082625     0.20700
H454        H  0.28508703  0.49175071  0.82153978     0.19100
H455        H  0.26259447  0.45696661  0.87712979     0.19000
H456        H  0.37294913  0.45343797  0.80289485     0.14900
C457        C  0.29674638  0.03844505  0.57255893     0.30300
C458        C  0.29680447  0.01827024  0.60199513    -0.36000
C459        C  0.31811199  0.01278462  0.61682382     0.16300
C460        C  0.33800264  0.02573091  0.60333730     0.22100
C461        C  0.33794808  0.04591137  0.57394759    -0.34100
C462        C  0.31663231  0.05200230  0.55951638     0.16200
O463        O  0.27869037  0.04805162  0.55534128    -0.26200
C464        C  0.28714057  0.06842839  0.53132042     0.06000
C465        C  0.31061257  0.07195085  0.53276330    -0.31000
O466        O  0.35571783  0.01979341  0.62268167    -0.22900
C467        C  0.34716400  0.00322631  0.64935180    -0.02900
C468        C  0.32376054  0.99778723  0.64670298    -0.17300
H469        H  0.28125181  0.00858190  0.61321738     0.20700
H470        H  0.35335220  0.05724709  0.56382803     0.19100
H471        H  0.32158327  0.08710695  0.51651095     0.19000
H472        H  0.31792762  0.47365021  0.65596006     0.14900
C473        C  0.44937009  0.34949553  0.71975887     0.30300
C474        C  0.43291602  0.36387935  0.69852891    -0.36000
C475        C  0.42379311  0.39551728  0.70879792     0.16300
C476        C  0.43035903  0.41201705  0.73797361     0.22100
C477        C  0.44708319  0.39777965  0.75909564    -0.34100
C478        C  0.45626219  0.36601029  0.74878064     0.16200
O479        O  0.45892280  0.31908720  0.71595452    -0.26200
C480        C  0.47244514  0.31594846  0.74261252     0.06000
C481        C  0.47144894  0.34445470  0.76401365    -0.31000
O482        O  0.41880166  0.44069984  0.74330782    -0.22900
C483        C  0.40469385  0.44264218  0.71711784    -0.02900
C484        C  0.40716799  0.41513862  0.69483378    -0.17300
H485        H  0.42718797  0.35083889  0.67597866     0.20700
H486        H  0.45218386  0.41018122  0.78231536     0.19100
H487        H  0.47972893  0.34796483  0.78810115     0.19000
H488        H  0.39779798  0.40978832  0.67201066     0.14900
C489        C  0.45435017  0.13879355  0.75003606     0.30300
C490        C  0.44967313  0.10461629  0.76013484    -0.36000
C491        C  0.43031712  0.08918813  0.74566699     0.16300
C492        C  0.41673827  0.10648459  0.72302838     0.22100
C493        C  0.42141455  0.14025066  0.71298209    -0.34100
C494        C  0.44061508  0.15540987  0.72719725     0.16200
O495        O  0.47125066  0.15863398  0.76036595    -0.26200
C496        C  0.46827088  0.18822679  0.74368328     0.06000
C497        C  0.44945182  0.18728171  0.72255487    -0.31000
O498        O  0.40006705  0.08748239  0.71155445    -0.22900
C499        C  0.40265224  0.05725827  0.72678570    -0.02900
C500        C  0.42122507  0.05671350  0.74857267    -0.17300
H501        H  0.46038797  0.09102399  0.77779833     0.20700
H502        H  0.41086457  0.15370782  0.69498862     0.19100
H503        H  0.44297856  0.20718999  0.70610640     0.19000
H504        H  0.42760723  0.03532085  0.76321851     0.14900
C505        C  0.70361901  0.04632274  0.92039219     0.30300
C506        C  0.70158831  0.02187145  0.89420294    -0.36000
C507        C  0.68083579  0.02186510  0.87655395     0.16300
C508        C  0.66350781  0.04437542  0.88439843     0.22100
C509        C  0.66547576  0.06851359  0.91041214    -0.34100
C510        C  0.68606866  0.06864184  0.92775536     0.16200
O511        O  0.72158438  0.05183514  0.93966655    -0.26200
C512        C  0.71532885  0.07816491  0.95927633     0.06000
C513        C  0.69342231  0.08955666  0.95286849    -0.31000
O514        O  0.64623452  0.04184770  0.86376488    -0.22900
C515        C  0.65216627  0.01733749  0.84198298    -0.02900
C516        C  0.66994582  0.49778797  0.85517870    -0.17300
H517        H  0.71111598  0.50124727  0.89463027     0.20700
H518        H  0.65204057  0.08663930  0.91613056     0.19100
H519        H  0.68429120  0.11045574  0.96486315     0.19000
H520        H  0.67995783  0.47922432  0.84121293     0.14900
C521        C  0.68370167  0.43216224  0.63703151     0.30300
C522        C  0.66230544  0.43205317  0.65305773    -0.36000
C523        C  0.65897385  0.45676964  0.67851877     0.16300
C524        C  0.67572475  0.47961444  0.68796777     0.22100
C525        C  0.69699625  0.48010871  0.67158433    -0.34100
C526        C  0.70020905  0.45568885  0.64582697     0.16200
O527        O  0.69053915  0.41098981  0.61292544    -0.26200
C528        C  0.71165270  0.42124305  0.60587512     0.06000
C529        C  0.71854270  0.44905081  0.62554979    -0.31000
O530        O  0.66979455  0.49814428  0.71452654    -0.22900
C531        C  0.64877144  0.48759606  0.72188923    -0.02900
C532        C  0.64109646  0.46205487  0.70009321    -0.17300
H533        H  0.64928416  0.41357566  0.64651656     0.20700
H534        H  0.71029933  0.49779186  0.67893463     0.19100
H535        H  0.73471924  0.46232610  0.62503563     0.19000
H536        H  0.62543991  0.44749103  0.70173040     0.14900
C537        C  0.53371697  0.13858483  0.75393190     0.30300
C538        C  0.54240332  0.10881379  0.73781256    -0.36000
C539        C  0.55983865  0.09117012  0.75505402     0.16300
C540        C  0.56774570  0.10237655  0.78585602     0.22100
C541        C  0.55900704  0.13147663  0.80192591    -0.34100
C542        C  0.54191420  0.14892718  0.78485637     0.16200
O543        O  0.51869961  0.16069656  0.74176157    -0.26200
C544        C  0.51744593  0.18520805  0.76541267     0.06000
C545        C  0.53149362  0.17894199  0.79273119    -0.31000
O546        O  0.58454981  0.08380582  0.79721121    -0.22900
C547        C  0.58793585  0.05987330  0.77378460    -0.02900
C548        C  0.57289189  0.06289945  0.74673677    -0.17300
H549        H  0.53649980  0.10064773  0.71325647     0.20700
H550        H  0.56563015  0.14051068  0.82578439     0.19100
H551        H  0.53437295  0.19506557  0.81458647     0.19000
H552        H  0.57204773  0.04728895  0.72415984     0.14900
C553        C  0.53802121  0.35883978  0.76014211     0.30300
C554        C  0.54674738  0.38901849  0.74539581    -0.36000
C555        C  0.56420438  0.40562077  0.76316870     0.16300
C556        C  0.57238468  0.39362780  0.79353518     0.22100
C557        C  0.56359576  0.36352788  0.80837154    -0.34100
C558        C  0.54629942  0.34673014  0.79043214     0.16200
O559        O  0.52247519  0.33831107  0.74704952    -0.26200
C560        C  0.52077528  0.31259421  0.76919946     0.06000
C561        C  0.53522341  0.31656747  0.79669696    -0.31000
O562        O  0.58886939  0.41308652  0.80561670    -0.22900
C563        C  0.59140672  0.43790232  0.78262639    -0.02900
C564        C  0.57644636  0.43443332  0.75564333    -0.17300
H565        H  0.54064776  0.39854420  0.72141464     0.20700
H566        H  0.57006470  0.35356491  0.83196271     0.19100
H567        H  0.53763440  0.29921545  0.81777014     0.19000
H568        H  0.57458788  0.45070063  0.73367408     0.14900
C569        C  0.82530344  0.22755212  0.87311409     0.30300
C570        C  0.81663301  0.23462891  0.90564775    -0.36000
C571        C  0.80468534  0.20754606  0.92153734     0.16300
C572        C  0.80191356  0.17573893  0.90653852     0.22100
C573        C  0.80978381  0.16915949  0.87388263    -0.34100
C574        C  0.82124854  0.19617919  0.85796931     0.16200
O575        O  0.83874808  0.24751611  0.85450708    -0.26200
C576        C  0.84292391  0.22851810  0.82709169     0.06000
C577        C  0.83199960  0.19678932  0.82780687    -0.31000
O578        O  0.79186534  0.15323598  0.92640709    -0.22900
C579        C  0.78760345  0.17080383  0.95442252    -0.02900
C580        C  0.79493893  0.20490171  0.95290400    -0.17300
H581        H  0.81958809  0.25900727  0.91807935     0.20700
H582        H  0.80770433  0.14425832  0.86203997     0.19100
H583        H  0.83321837  0.17612556  0.80954879     0.19000
H584        H  0.79392460  0.22435835  0.97240008     0.14900
C585        C  0.82640430  0.26326815  0.67005364     0.30300
C586        C  0.80546673  0.26305786  0.65329971    -0.36000
C587        C  0.80188505  0.28981858  0.63019738     0.16300
C588        C  0.81777301  0.31520737  0.62397997     0.22100
C589        C  0.83896215  0.31503135  0.64031404    -0.34100
C590        C  0.84262378  0.28806357  0.66339033     0.16200
O591        O  0.83200523  0.24318372  0.69547216    -0.26200
C592        C  0.85228460  0.25468437  0.70506855     0.06000
C593        C  0.85987977  0.28242110  0.68574611    -0.31000
O594        O  0.81023637  0.33888272  0.60281130    -0.22900
C595        C  0.78931053  0.32832277  0.59526916    -0.02900
C596        C  0.78328951  0.29785804  0.61149764    -0.17300
H597        H  0.79247208  0.24415236  0.65896233     0.20700
H598        H  0.85137996  0.33519078  0.63624160     0.19100
H599        H  0.87468294  0.29836259  0.68998819     0.19000
H600        H  0.76732906  0.28406240  0.61024196     0.14900
C601        C  0.16127034  0.29526265  0.82010311     0.30300
C602        C  0.16251685  0.32218456  0.84387001    -0.36000
C603        C  0.18229946  0.32335815  0.86372652     0.16300
C604        C  0.19951636  0.29946781  0.86061013     0.22100
C605        C  0.19831701  0.27275616  0.83685039    -0.34100
C606        C  0.17871735  0.27178988  0.81687196     0.16200
O607        O  0.14497210  0.29017964  0.79768712    -0.26200
C608        C  0.15221542  0.26324162  0.77974886     0.06000
C609        C  0.17309438  0.25080980  0.79071555    -0.31000
O610        O  0.21646159  0.30525227  0.88155722    -0.22900
C611        C  0.21021064  0.33338983  0.89835724    -0.02900
C612        C  0.18910345  0.34589893  0.88822374    -0.17300
H613        H  0.14919778  0.34122145  0.84630027     0.20700
H614        H  0.21192276  0.25428074  0.83377588     0.19100
H615        H  0.18310058  0.23007986  0.78007059     0.19000
H616        H  0.18006961  0.36818727  0.89766897     0.14900
C617        C  0.16342575  0.19222309  0.61894856     0.30300
C618        C  0.16629032  0.16453681  0.59685182    -0.36000
C619        C  0.18459303  0.16694868  0.57443359     0.16300
C620        C  0.19918123  0.19475962  0.57352417     0.22100
C621        C  0.19612503  0.22289356  0.59557612    -0.34100
C622        C  0.17767173  0.22042915  0.61827477     0.16200
O623        O  0.14806787  0.19398559  0.64297704    -0.26200
C624        C  0.15219978  0.22374122  0.65830346     0.06000
C625        C  0.17036782  0.24164685  0.64376054    -0.31000
O626        O  0.21556623  0.19077791  0.55083733    -0.22900
C627        C  0.21122626  0.16004315  0.53728549    -0.02900
C628        C  0.19214869  0.14420890  0.55101149    -0.17300
H629        H  0.15525117  0.14224268  0.59760663     0.20700
H630        H  0.20752630  0.24476373  0.59546526     0.19100
H631        H  0.17760561  0.26593215  0.65167532     0.19000
H632        H  0.18499616  0.11933371  0.54480770     0.14900
C633        C  0.04822572  0.39429690  0.70715579     0.30300
C634        C  0.06528084  0.37880508  0.68742558    -0.36000
C635        C  0.07510487  0.34892604  0.70089766     0.16300
C636        C  0.06866552  0.33533460  0.73169119     0.22100
C637        C  0.05147405  0.35063588  0.75124610    -0.34100
C638        C  0.04153813  0.38035235  0.73769448     0.16200
O639        O  0.03779143  0.42353419  0.70050422    -0.26200
C640        C  0.02391131  0.42807952  0.72681772     0.06000
C641        C  0.02557287  0.40200067  0.75077919    -0.31000
O642        O  0.08045855  0.30773516  0.73981626    -0.22900
C643        C  0.09460198  0.30334368  0.71383226    -0.02900
C644        C  0.09201299  0.32831458  0.68882699    -0.17300
H645        H  0.07079843  0.38964726  0.66356146     0.20700
H646        H  0.04643355  0.34037229  0.77557703     0.19100
H647        H  0.01720965  0.40033802  0.77514129     0.19000
H648        H  0.10128904  0.33116504  0.66532438     0.14900
C649        C  0.03957884  0.10674320  0.74470179     0.30300
C650        C  0.04102080  0.14303521  0.74638127    -0.36000
C651        C  0.06315443  0.15715506  0.74709593     0.16300
C652        C  0.08229644  0.13670903  0.74622315     0.22100
C653        C  0.08082179  0.10078987  0.74482241    -0.34100
C654        C  0.05891332  0.08691121  0.74395211     0.16200
O655        O  0.02087451  0.08779972  0.74280542    -0.26200
C656        C  0.02835609  0.05533805  0.74054491     0.06000
C657        C  0.05205299  0.05369501  0.74132216    -0.31000
O658        O  0.10115860  0.15456746  0.74314732    -0.22900
C659        C  0.09443468  0.18721676  0.74239781    -0.02900
C660        C  0.07085837  0.19053399  0.74495924    -0.17300
H661        H  0.02601460  0.15910197  0.74608919     0.20700
H662        H  0.09581800  0.08475972  0.74316280     0.19100
H663        H  0.06303884  0.03143188  0.74060319     0.19000
H664        H  0.06083455  0.21364703  0.74184615     0.14900
C665        C  0.96106745  0.10507504  0.74031282     0.30300
C666        C  0.95219483  0.13461034  0.72428748    -0.36000
C667        C  0.93647689  0.15411603  0.74326957     0.16300
C668        C  0.93022288  0.14492839  0.77566035     0.22100
C669        C  0.93914361  0.11584576  0.79164242    -0.34100
C670        C  0.95459115  0.09643491  0.77276460     0.16200
O671        O  0.97489048  0.08189766  0.72689955    -0.26200
C672        C  0.97722962  0.05838311  0.75125420     0.06000
C673        C  0.96488582  0.06610672  0.78021877    -0.31000
O674        O  0.91446899  0.16501813  0.78831682    -0.22900
C675        C  0.91026804  0.18778932  0.76405053    -0.02900
C676        C  0.92362238  0.18251608  0.73527585    -0.17300
H677        H  0.95671122  0.14130693  0.69858101     0.20700
H678        H  0.93381674  0.10826682  0.81678176     0.19100
H679        H  0.96321388  0.05094094  0.80304296     0.19000
H680        H  0.92320514  0.19644490  0.71161758     0.14900
C681        C  0.94990815  0.39745464  0.77080348     0.30300
C682        C  0.93308121  0.38296532  0.79178893    -0.36000
C683        C  0.92348216  0.35188063  0.78069391     0.16300
C684        C  0.93001247  0.33613525  0.75099759     0.22100
C685        C  0.94698927  0.35046105  0.73014713    -0.34100
C686        C  0.95662437  0.38152526  0.74127637     0.16200
O687        O  0.96039685  0.42707156  0.77563509    -0.26200
C688        C  0.97431255  0.43008455  0.74912155     0.06000
C689        C  0.97262191  0.40244883  0.72682366    -0.31000
O690        O  0.91850857  0.30759467  0.74516791    -0.22900
C691        C  0.90436795  0.30484950  0.77145455    -0.02900
C692        C  0.90677289  0.33177211  0.79443736    -0.17300
H693        H  0.92761732  0.39534481  0.81492124     0.20700
H694        H  0.95213420  0.33842469  0.70668220     0.19100
H695        H  0.98131394  0.39891214  0.70291832     0.19000
H696        H  0.89756192  0.33608963  0.81776950     0.14900
C697        C  0.98718272  0.96214804  0.74524515     0.02800
C698        C  0.01039525  0.96067267  0.73570875     0.02800
C699        C  0.02278466  0.99151606  0.73234051    -0.17700
C700        C  0.01348052  0.52359585  0.73610103     0.02800
C701        C  0.99016002  0.52463195  0.74492577     0.02800
C702        C  0.97813566  0.49359225  0.74931835    -0.17700
H703        H  0.96041768  0.49451100  0.75694618     0.04800
H704        H  0.04048959  0.98955598  0.72524615     0.04800
C705        C  0.13540380  0.73248571  0.68362141     0.87000
C706        C  0.11981874  0.70416137  0.69737490    -0.53200
C707        C  0.10879635  0.71243743  0.72643456     0.10000
C708        C  0.11441625  0.74875455  0.73969146     0.20900
C709        C  0.12009483  0.76435394  0.68047869    -0.53900
C710        C  0.10892464  0.77287798  0.70986059     0.10100
C711        C  0.15147748  0.74061054  0.71281263    -0.53500
C712        C  0.14067801  0.74949030  0.74223653     0.10600
H713        H  0.11737708  0.67944525  0.68507731     0.15100
H714        H  0.10549440  0.75540782  0.76359847     0.00900
H715        H  0.11799379  0.77826050  0.65692992     0.15400
H716        H  0.16983679  0.74021126  0.71003326     0.15200
C717        C  0.86021265  0.73498077  0.80254104     0.87000
C718        C  0.87805876  0.70709310  0.79780269    -0.53200
C719        C  0.89222242  0.71155578  0.77091275     0.10000
C720        C  0.88710063  0.74478295  0.75056531     0.20900
C721        C  0.87406706  0.76872150  0.80452815    -0.53900
C722        C  0.88835345  0.77382344  0.77715254     0.10100
C723        C  0.84780668  0.73700197  0.76881229    -0.53500
C724        C  0.86152146  0.74298333  0.74160470     0.10600
H725        H  0.87941015  0.68535084  0.81497193     0.15100
H726        H  0.89841403  0.74872837  0.72836526     0.00900
H727        H  0.87281656  0.78642642  0.82561795     0.15400
H728        H  0.82938705  0.73642472  0.76707018     0.15200
C729        C  0.63537400  0.50377128  0.81504204     0.87000
C730        C  0.61844258  0.53260808  0.80845077    -0.53200
C731        C  0.60545000  0.52872971  0.78050616     0.10000
C732        C  0.61176640  0.00147520  0.75829614     0.20900
C733        C  0.62360737  0.97670477  0.81221759    -0.53900
C734        C  0.60979452  0.97222852  0.78468171     0.10100
C735        C  0.65089320  0.00840424  0.77762274    -0.53500
C736        C  0.63751279  0.00296307  0.75000327     0.10600
H737        H  0.61637228  0.55441201  0.82533527     0.15100
H738        H  0.60097707  0.99824627  0.73568354     0.00900
H739        H  0.62417919  0.95867518  0.83315743     0.15400
H740        H  0.66932176  0.00914472  0.77620161     0.15200
C741        C  0.51340315  0.78068406  0.76133476     0.02800
C742        C  0.49119861  0.78317730  0.74781638     0.02800
C743        C  0.47858128  0.75297510  0.74224091    -0.17700
C744        C  0.48740799  0.72016449  0.74940095     0.02800
C745        C  0.50976952  0.71756395  0.76148014     0.02800
C746        C  0.52230222  0.74768655  0.76799817    -0.17700
H747        H  0.53961496  0.74517802  0.77681169     0.04800
H748        H  0.46132800  0.75523929  0.73308630     0.04800
C749        C  0.35905320  0.50681127  0.68640574     0.87000
C750        C  0.37492921  0.53691733  0.69389372    -0.53200
C751        C  0.38809029  0.53330811  0.72176877     0.10000
C752        C  0.38680015  0.99200695  0.73444227     0.20900
C753        C  0.37957516  0.96971215  0.67782732    -0.53900
C754        C  0.39292250  0.96642715  0.70603424     0.10100
C755        C  0.34804494  0.98902695  0.71309399    -0.53500
C756        C  0.36122961  0.98568302  0.74107109     0.10600
H757        H  0.37582820  0.55967903  0.67801947     0.15100
H758        H  0.39745487  0.98961114  0.75736306     0.00900
H759        H  0.38150594  0.95384032  0.65547013     0.15400
H760        H  0.32981142  0.98525113  0.71414228     0.15200
O761        O  0.28145377  0.86506521  0.93027597    -0.73900
O762        O  0.24494254  0.82396742  0.00003020    -0.73900
O763        O  0.24432930  0.82328359  0.93098155    -0.74000
O764        O  0.28178993  0.86616179  0.99844955    -0.74000
O765        O  0.25893949  0.91191013  0.99880242    -0.73900
O766        O  0.22141971  0.86897845  0.93163732    -0.73900
O767        O  0.22182849  0.86946374  0.99974468    -0.73900
O768        O  0.25847315  0.91070546  0.93006905    -0.74000
Ni769      Ni  0.26388992  0.84293104  0.96496090     1.25400
Ni770      Ni  0.23938397  0.89191663  0.96510287     1.25400
C771        C  0.27600046  0.89469847  0.91880591     0.88300
C772        C  0.22735599  0.83980527  0.01118466     0.88200
C773        C  0.22669308  0.83919139  0.92019651     0.88300
C774        C  0.27670462  0.89628474  0.00938984     0.88400
C775        C  0.01126808  0.97643834  0.25967555     0.02800
C776        C  0.98906892  0.97504928  0.27301565     0.02800
C777        C  0.97789853  0.50783012  0.28530355    -0.17700
C778        C  0.98839293  0.54031889  0.28001890     0.02800
C779        C  0.01032226  0.54106119  0.26472374     0.02800
C780        C  0.02130146  0.50983611  0.25773122    -0.17700
H781        H  0.03858954  0.51074076  0.24826597     0.04800
H782        H  0.96065432  0.50644464  0.29470248     0.04800
C783        C  0.13621199  0.76060189  0.18844127     0.87000
C784        C  0.15062857  0.75512476  0.22007792    -0.53200
C785        C  0.13828120  0.75264578  0.24924708     0.10000
C786        C  0.11244036  0.75641317  0.24419478     0.20900
C787        C  0.11896931  0.73066883  0.18876284    -0.53900
C788        C  0.10653822  0.72825428  0.21815912     0.10100
C789        C  0.12221902  0.79268323  0.19622025    -0.53500
C790        C  0.10943649  0.79066511  0.22490303     0.10600
H791        H  0.16893989  0.75174824  0.21935930     0.15100
H792        H  0.10272861  0.75514380  0.26818960     0.00900
H793        H  0.11708033  0.71279580  0.16789755     0.15400
H794        H  0.12204795  0.81503669  0.17971497     0.15200
C795        C  0.86479538  0.74107519  0.25026730     0.87000
C796        C  0.84987038  0.75068869  0.28077431    -0.53200
C797        C  0.86175279  0.76245251  0.30800810     0.10000
C798        C  0.88774865  0.76296828  0.30235580     0.20900
C799        C  0.87929155  0.77326930  0.24297273    -0.53900
C800        C  0.89134383  0.78468995  0.27025490     0.10100
C801        C  0.88158228  0.71463529  0.26438676    -0.53500
C802        C  0.89376075  0.72607734  0.29121585     0.10600
H803        H  0.83145384  0.74885523  0.28065614     0.15100
H804        H  0.89763552  0.77200394  0.32446083     0.00900
H805        H  0.87999856  0.78572038  0.21842829     0.15400
H806        H  0.88422600  0.68916029  0.25388767     0.15200
C807        C  0.63660160  0.50264363  0.25126480     0.87000
C808        C  0.65392089  0.99566516  0.27757874    -0.53200
C809        C  0.64088505  0.98992535  0.30560313     0.10000
C810        C  0.61510769  0.98874670  0.29831596     0.20900
C811        C  0.62588779  0.96619840  0.24295612    -0.53900
C812        C  0.61253030  0.96063170  0.27095314     0.10100
C813        C  0.61833176  0.53000845  0.25738113    -0.53500
C814        C  0.60455960  0.52355917  0.28435762     0.10600
H815        H  0.67235103  0.99665180  0.27845948     0.15100
H816        H  0.60444297  0.98494230  0.32117004     0.00900
H817        H  0.62599606  0.94915252  0.22123236     0.15400
H818        H  0.61603537  0.55229178  0.24115350     0.15200
C819        C  0.36600692  0.98554139  0.18397298     0.87000
C820        C  0.35011602  0.98807845  0.21473062    -0.53200
C821        C  0.36500945  0.49110148  0.24858276     0.10000
C822        C  0.39117408  0.49169329  0.24541308     0.20900
C823        C  0.38461023  0.51626922  0.18940834    -0.53900
C824        C  0.39588246  0.52054559  0.21954467     0.10100
C825        C  0.38243396  0.95637928  0.19276916    -0.53500
C826        C  0.39367469  0.96026747  0.22241350     0.10600
H827        H  0.33171969  0.98820147  0.21271641     0.15100
H828        H  0.39987413  0.49498277  0.26996350     0.00900
H829        H  0.38599210  0.53432577  0.16856462     0.15400
H830        H  0.38528861  0.93431409  0.17647858     0.15200
C831        C  0.48867953  0.77644602  0.27483195     0.02800
C832        C  0.51192830  0.77324889  0.28249727     0.02800
C833        C  0.52101222  0.74030776  0.28837212    -0.17700
C834        C  0.50770824  0.71035110  0.28482229     0.02800
C835        C  0.48452875  0.71347372  0.27563632     0.02800
C836        C  0.47530664  0.74663517  0.27192495    -0.17700
H837        H  0.45751244  0.74944366  0.26560370     0.04800
H838        H  0.53897068  0.73785871  0.29385498     0.04800
O839        O  0.77771481  0.62440057  0.99377797    -0.73900
O840        O  0.74560724  0.57977660  0.06635903    -0.73900
O841        O  0.74264408  0.57959524  0.99776763    -0.74000
O842        O  0.78089420  0.62461133  0.06231052    -0.74000
O843        O  0.75599885  0.66768587  0.06649334    -0.73900
O844        O  0.71911578  0.62458193  0.99893832    -0.73900
O845        O  0.72044401  0.62270232  0.06692715    -0.73900
O846        O  0.75472487  0.66985257  0.99792364    -0.74000
Ni847      Ni  0.76260475  0.60056562  0.02999447     1.25400
Ni848      Ni  0.73673151  0.64783595  0.03265613     1.25400
C849        C  0.77161065  0.65444016  0.98405128     0.88300
C850        C  0.72741898  0.59360099  0.07799702     0.88200
C851        C  0.72458833  0.59473357  0.98773302     0.88300
C852        C  0.77460754  0.65325098  0.07535223     0.88400
O853        O  0.24022526  0.65825058  0.42672424    -0.73900
O854        O  0.27533900  0.61433951  0.49531084    -0.73900
O855        O  0.27678943  0.61540243  0.42720104    -0.74000
O856        O  0.23894051  0.65709943  0.49498114    -0.74000
O857        O  0.21627396  0.61103526  0.49433453    -0.73900
O858        O  0.25328403  0.57037585  0.42510597    -0.73900
O859        O  0.25276270  0.56822869  0.49401624    -0.73900
O860        O  0.21663127  0.61327228  0.42617214    -0.74000
Ni861      Ni  0.25864664  0.63784632  0.46107824     1.25400
Ni862      Ni  0.23392832  0.58904677  0.45979492     1.25400
C863        C  0.22232607  0.64335898  0.41574503     0.88300
C864        C  0.27000182  0.58422614  0.50595818     0.88200
C865        C  0.27128127  0.58603564  0.41505862     0.88300
C866        C  0.22137328  0.64089816  0.50574095     0.88400
O867        O  0.71880485  0.87676247  0.56549446    -0.73900
O868        O  0.75589114  0.83540762  0.49602237    -0.73900
O869        O  0.75529025  0.83314957  0.56471338    -0.74000
O870        O  0.71940479  0.87871872  0.49743236    -0.74000
O871        O  0.74312158  0.92352594  0.49834718    -0.73900
O872        O  0.77903163  0.87789460  0.56592593    -0.73900
O873        O  0.77951334  0.88028556  0.49764603    -0.73900
O874        O  0.74262108  0.92141213  0.56698386    -0.74000
Ni875      Ni  0.73654770  0.85436970  0.53088228     1.25400
Ni876      Ni  0.76187865  0.90239547  0.53232639     1.25400
C877        C  0.72448559  0.90624822  0.57725171     0.88300
C878        C  0.77384934  0.85098146  0.48552836     0.88200
C879        C  0.77323009  0.84778512  0.57607706     0.88300
C880        C  0.72524794  0.90866347  0.48699919     0.88400
C881        C  0.32395256  0.51168762  0.30975423     0.30300
C882        C  0.30215276  0.51180071  0.32428556    -0.36000
C883        C  0.29841298  0.53600872  0.34995820     0.16300
C884        C  0.31488231  0.55893459  0.36031495     0.22100
C885        C  0.33679743  0.55858602  0.34599264    -0.34100
C886        C  0.34066365  0.53392974  0.32066456     0.16200
O887        O  0.33065890  0.49256918  0.28409917    -0.26200
C888        C  0.35211937  0.50208962  0.27883222     0.06000
C889        C  0.35931667  0.52766648  0.30095583    -0.31000
O890        O  0.30748197  0.57986656  0.38421601    -0.22900
C891        C  0.28608012  0.56993543  0.38947250    -0.02900
C892        C  0.27953975  0.54270516  0.36890536    -0.17300
H893        H  0.28893108  0.49449573  0.31584744     0.20700
H894        H  0.34984988  0.57646814  0.35384230     0.19100
H895        H  0.37535862  0.54132298  0.30090699     0.19000
H896        H  0.26322133  0.52987813  0.36795843     0.14900
C897        C  0.46195017  0.85737969  0.26911813     0.30300
C898        C  0.45205955  0.88827728  0.28091107    -0.36000
C899        C  0.43682546  0.90468882  0.25870936     0.16300
C900        C  0.43198606  0.89146187  0.22724356     0.22100
C901        C  0.44198381  0.86117100  0.21539750    -0.34100
C902        C  0.45692217  0.84485195  0.23742815     0.16200
O903        O  0.47500006  0.83593029  0.28637724    -0.26200
C904        C  0.47822497  0.80962949  0.26519092     0.06000
C905        C  0.46741818  0.81399603  0.23445974    -0.31000
O906        O  0.41660644  0.90934860  0.21111697    -0.22900
C907        C  0.41121039  0.93474375  0.23213702    -0.02900
C908        C  0.42337800  0.93338275  0.26229536    -0.17300
H909        H  0.45535417  0.89810937  0.30597329     0.20700
H910        H  0.43774479  0.85037877  0.19103321     0.19100
H911        H  0.46635483  0.79594385  0.21370722     0.19000
H912        H  0.42214243  0.95037290  0.28386227     0.14900
C913        C  0.45672318  0.63297747  0.26716357     0.30300
C914        C  0.45261113  0.59780884  0.27293921    -0.36000
C915        C  0.43579652  0.58246278  0.25279632     0.16300
C916        C  0.42391760  0.60032264  0.22849999     0.22100
C917        C  0.42801569  0.63545519  0.22279727    -0.34100
C918        C  0.44472158  0.65081433  0.24302430     0.16200
O919        O  0.47197382  0.65241372  0.28251745    -0.26200
C920        C  0.46978182  0.68318940  0.26793665     0.06000
C921        C  0.45291276  0.68353984  0.24333058    -0.31000
O922        O  0.40877813  0.58096261  0.21284043    -0.22900
C923        C  0.41083465  0.55025811  0.22746466    -0.02900
C924        C  0.42748547  0.54974774  0.25239898    -0.17300
H925        H  0.46187125  0.58340844  0.29177875     0.20700
H926        H  0.41880897  0.64985127  0.20390140     0.19100
H927        H  0.44792404  0.70458293  0.22706862     0.19000
H928        H  0.43268158  0.52846183  0.26819264     0.14900
C929        C  0.68328247  0.93644457  0.43043061     0.30300
C930        C  0.66220136  0.93545747  0.41391006    -0.36000
C931        C  0.65992109  0.95721594  0.38578390     0.16300
C932        C  0.67731487  0.97821526  0.37456525     0.22100
C933        C  0.69817422  0.97984856  0.39156819    -0.34100
C934        C  0.70038094  0.95831552  0.41982439     0.16200
O935        O  0.68966275  0.91647129  0.45563416    -0.26200
C936        C  0.71103145  0.92594722  0.46156455     0.06000
C937        C  0.71854181  0.95211790  0.44022462    -0.31000
O938        O  0.67247443  0.99357300  0.34580549    -0.22900
C939        C  0.65155081  0.98280270  0.33865053    -0.02900
C940        C  0.64278352  0.96033663  0.36283081    -0.17300
H941        H  0.64881681  0.91799747  0.42168261     0.20700
H942        H  0.71203612  0.99580348  0.38259279     0.19100
H943        H  0.73525594  0.96370806  0.43893566     0.19000
H944        H  0.62689513  0.94630587  0.36219380     0.14900
C945        C  0.68578137  0.55649280  0.13027979     0.30300
C946        C  0.66364582  0.54784261  0.14061173    -0.36000
C947        C  0.66163647  0.53137604  0.17203368     0.16300
C948        C  0.68007610  0.52454413  0.19229673     0.22100
C949        C  0.70231374  0.53226300  0.18150289    -0.34100
C950        C  0.70437520  0.54816860  0.14973156     0.16200
O951        O  0.69141598  0.57358518  0.10266600    -0.26200
C952        C  0.71395991  0.57563011  0.10401072     0.06000
C953        C  0.72300771  0.56000927  0.13256983    -0.31000
O954        O  0.67403340  0.51239602  0.22220286    -0.22900
C955        C  0.65141760  0.51087777  0.22091898    -0.02900
C956        C  0.64286655  0.52177866  0.18996612    -0.17300
H957        H  0.64894818  0.55434843  0.12560303     0.20700
H958        H  0.71692509  0.52714792  0.19719384     0.19100
H959        H  0.74063075  0.55875017  0.14013012     0.19000
H960        H  0.62525636  0.52458226  0.18273878     0.14900
C961        C  0.54080832  0.63808444  0.30598252     0.30300
C962        C  0.55669426  0.61901489  0.32470709    -0.36000
C963        C  0.56491495  0.58880465  0.30939090     0.16300
C964        C  0.55799839  0.57837093  0.27775059     0.22100
C965        C  0.54180565  0.59696613  0.25943047    -0.34100
C966        C  0.53361901  0.62700977  0.27471648     0.16200
O967        O  0.53233323  0.66848139  0.31407697    -0.26200
C968        C  0.51923670  0.67661773  0.28790516     0.06000
C969        C  0.51961025  0.65186722  0.26254569    -0.31000
O970        O  0.57001197  0.55237714  0.26610423    -0.22900
C971        C  0.58457111  0.54542793  0.29073403    -0.02900
C972        C  0.58213154  0.56709863  0.31847771    -0.17300
H973        H  0.56300700  0.62796350  0.34877345     0.20700
H974        H  0.53684469  0.58950089  0.23419232     0.19100
H975        H  0.51148206  0.65279707  0.23810694     0.19000
H976        H  0.59298295  0.56889498  0.34038205     0.14900
C977        C  0.57940850  0.88545033  0.26158497     0.30300
C978        C  0.57187081  0.85509340  0.24592800    -0.36000
C979        C  0.55421452  0.83731542  0.26245024     0.16300
C980        C  0.54444693  0.84874938  0.29216927     0.22100
C981        C  0.55207829  0.87901440  0.30788456    -0.34100
C982        C  0.56986460  0.89662998  0.29150418     0.16200
O983        O  0.59563210  0.90617578  0.25050075    -0.26200
C984        C  0.59662600  0.93097620  0.27370806     0.06000
C985        C  0.58094608  0.92622529  0.29983448    -0.31000
O986        O  0.52809884  0.82815414  0.30317217    -0.22900
C987        C  0.52754612  0.80305476  0.28032461    -0.02900
C988        C  0.54341657  0.80737826  0.25448102    -0.17300
H989        H  0.57928851  0.84592574  0.22253945     0.20700
H990        H  0.54469318  0.88816749  0.33129791     0.19100
H991        H  0.57782050  0.94227682  0.32165993     0.19000
H992        H  0.54647980  0.79080361  0.23297491     0.14900
C993        C  0.82440381  0.77942694  0.37564011     0.30300
C994        C  0.80427060  0.77601422  0.39457783    -0.36000
C995        C  0.80061918  0.80074968  0.41984325     0.16300
C996        C  0.81569968  0.82718345  0.42601116     0.22100
C997        C  0.83608997  0.83022320  0.40746219    -0.34100
C998        C  0.83983227  0.80527857  0.38229882     0.16200
O999        O  0.83035531  0.76055148  0.34936179    -0.26200
C1000       C  0.85007420  0.77400935  0.33925739     0.06000
C1001       C  0.85692578  0.80176501  0.35899833    -0.31000
O1002       O  0.80835262  0.84830383  0.44984927    -0.22900
C1003       C  0.78836313  0.83509426  0.45923320    -0.02900
C1004       C  0.78275789  0.80539935  0.44147450    -0.17300
H1005       H  0.79201454  0.75594086  0.38939549     0.20700
H1006       H  0.84797428  0.85099566  0.41186485     0.19100
H1007       H  0.87164031  0.81813566  0.35545095     0.19000
H1008       H  0.76753915  0.78988730  0.44375011     0.14900
C1009       C  0.81647677  0.67751462  0.13332854     0.30300
C1010       C  0.83706505  0.67463632  0.15071540    -0.36000
C1011       C  0.84053800  0.69841926  0.17678819     0.16300
C1012       C  0.82493164  0.72344503  0.18525238     0.22100
C1013       C  0.80438597  0.72659124  0.16757471    -0.34100
C1014       C  0.80086299  0.70271684  0.14144935     0.16200
O1015       O  0.80942370  0.65711156  0.10893700    -0.26200
C1016       C  0.78904584  0.66944261  0.10110074     0.06000
C1017       C  0.78284648  0.69790066  0.12043769    -0.31000
O1018       O  0.83142407  0.74207108  0.21140869    -0.22900
C1019       C  0.85143072  0.72865371  0.21998448    -0.02900
C1020       C  0.85797656  0.70163595  0.19886397    -0.17300
H1021       H  0.84934281  0.65479270  0.14475872     0.20700
H1022       H  0.79186084  0.74588036  0.17411048     0.19100
H1023       H  0.76715780  0.71237981  0.11962890     0.19000
H1024       H  0.87324540  0.68620960  0.19956400     0.14900
C1025       C  0.15768866  0.70851659  0.32048555     0.30300
C1026       C  0.15879159  0.68030798  0.34262409    -0.36000
C1027       C  0.17914059  0.67657271  0.36059417     0.16300
C1028       C  0.19701827  0.69939551  0.35750401     0.22100
C1029       C  0.19590220  0.72764136  0.33547417    -0.34100
C1030       C  0.17572210  0.73102913  0.31709401     0.16200
O1031       O  0.14127307  0.71488610  0.29876868    -0.26200
C1032       C  0.14896206  0.74166064  0.28109872     0.06000
C1033       C  0.17026923  0.75284748  0.29151084    -0.31000
O1034       O  0.21455731  0.69067991  0.37625179    -0.22900
C1035       C  0.20794525  0.66168070  0.39132043    -0.02900
C1036       C  0.18606475  0.65164418  0.38248462    -0.17300
H1037       H  0.14508068  0.66183483  0.34473542     0.20700
H1038       H  0.21007814  0.74509150  0.33205375     0.19100
H1039       H  0.18085344  0.77259677  0.28022450     0.19000
H1040       H  0.17662090  0.62935942  0.39110474     0.14900
C1041       C  0.07705107  0.86603755  0.22754790     0.30300
C1042       C  0.07055678  0.89855266  0.21604710    -0.36000
C1043       C  0.05146627  0.91283396  0.23165682     0.16300
C1044       C  0.03950037  0.89646346  0.25703652     0.22100
C1045       C  0.04594724  0.86352525  0.26845853    -0.34100
C1046       C  0.06521747  0.84906914  0.25271369     0.16200
O1047       O  0.09420880  0.84812951  0.21579900    -0.26200
C1048       C  0.09366284  0.81902410  0.23343068     0.06000
C1049       C  0.07596725  0.81807647  0.25701509    -0.31000
O1050       O  0.02296215  0.91587290  0.26929114    -0.22900
C1051       C  0.02444662  0.94493795  0.25139966    -0.02900
C1052       C  0.04177127  0.94411666  0.22736914    -0.17300
H1053       H  0.07989862  0.91193284  0.19639611     0.20700
H1054       H  0.03679399  0.85035444  0.28842392     0.19100
H1055       H  0.07125898  0.79733620  0.27391772     0.19000
H1056       H  0.04711774  0.96419975  0.21010140     0.14900
C1057       C  0.07101046  0.65488570  0.21904232     0.30300
C1058       C  0.06185567  0.62380772  0.20710842    -0.36000
C1059       C  0.04624777  0.60719362  0.22863998     0.16300
C1060       C  0.04013681  0.62000652  0.25987618     0.22100
C1061       C  0.04919857  0.65117587  0.27169731    -0.34100
C1062       C  0.06472896  0.66787199  0.25011590     0.16200
O1063       O  0.08625434  0.67436221  0.20348116    -0.26200
C1064       C  0.08979526  0.70030307  0.22485068     0.06000
C1065       C  0.07676195  0.69748375  0.25426654    -0.31000
O1066       O  0.02613948  0.59932159  0.27652966    -0.22900
C1067       C  0.02292097  0.57305201  0.25547484    -0.02900
C1068       C  0.03512439  0.57668682  0.22534459    -0.17300
H1069       H  0.06677797  0.61308437  0.18293240     0.20700
H1070       H  0.04472862  0.66144319  0.29624824     0.19100
H1071       H  0.07624113  0.71436649  0.27593901     0.19000
H1072       H  0.03620552  0.55876257  0.20447470     0.14900
C1073       C  0.92720819  0.65726898  0.31507347     0.30300
C1074       C  0.93002913  0.62226627  0.32260094    -0.36000
C1075       C  0.94963057  0.60666062  0.30946622     0.16300
C1076       C  0.96543290  0.62414278  0.29026448     0.22100
C1077       C  0.96304272  0.65950559  0.28368786    -0.34100
C1078       C  0.94340864  0.67524016  0.29688513     0.16200
O1079       O  0.90826935  0.67489494  0.31918837    -0.26200
C1080       C  0.91246765  0.70494817  0.30429095     0.06000
C1081       C  0.93416746  0.70667959  0.29021995    -0.31000
O1082       O  0.98116699  0.60356267  0.27762332    -0.22900
C1083       C  0.97563766  0.57238228  0.28917110    -0.02900
C1084       C  0.95609678  0.57310962  0.30937687    -0.17300
H1085       H  0.91704089  0.60762301  0.33570676     0.20700
H1086       H  0.97489982  0.67326597  0.26761593     0.19100
H1087       H  0.94075731  0.72612226  0.27317417     0.19000
H1088       H  0.94735416  0.55207102  0.32175007     0.14900
C1089       C  0.95806459  0.89925834  0.25676050     0.30300
C1090       C  0.94853479  0.87294452  0.23692564    -0.36000
C1091       C  0.93224473  0.85197221  0.25302012     0.16300
C1092       C  0.92613341  0.85622549  0.28645899     0.22100
C1093       C  0.93549136  0.88261715  0.30611832    -0.34100
C1094       C  0.95144932  0.90384883  0.28993822     0.16200
O1095       O  0.97289255  0.92275418  0.24666246    -0.26200
C1096       C  0.97564391  0.94272608  0.27372027     0.06000
C1097       C  0.96266129  0.93216068  0.30129001    -0.31000
O1098       O  0.91098942  0.83342136  0.29670390    -0.22900
C1099       C  0.90696878  0.81453007  0.26938924    -0.02900
C1100       C  0.91966540  0.82495484  0.24135262    -0.17300
H1101       H  0.95324652  0.86938011  0.21070311     0.20700
H1102       H  0.93048926  0.88654897  0.33217230     0.19100
H1103       H  0.96127828  0.94419473  0.32585973     0.19000
H1104       H  0.91997966  0.81373687  0.21634372     0.14900
C1105       C  0.17839161  0.77397031  0.12553319     0.30300
C1106       C  0.20067163  0.77843247  0.11342507    -0.36000
C1107       C  0.20290702  0.79564752  0.08241349     0.16300
C1108       C  0.18450690  0.80821019  0.06482714     0.22100
C1109       C  0.16219187  0.80287420  0.07647135    -0.34100
C1110       C  0.15994344  0.78505184  0.10717244     0.16200
O1111       O  0.17254760  0.76192484  0.15550699    -0.26200
C1112       C  0.14999020  0.76477700  0.15629808     0.06000
C1113       C  0.14122157  0.77830195  0.12646268    -0.31000
O1114       O  0.19060664  0.82564637  0.03761204    -0.22900
C1115       C  0.21318128  0.82359284  0.03741917    -0.02900
C1116       C  0.22177401  0.80504604  0.06453028    -0.17300
H1117       H  0.21528145  0.77010826  0.12773862     0.20700
H1118       H  0.14763628  0.81282326  0.06305476     0.19100
H1119       H  0.12379662  0.78526823  0.12119182     0.19000
H1120       H  0.23937805  0.80018459  0.07066841     0.14900
C1121       C  0.30445509  0.94827427  0.06972374     0.30300
C1122       C  0.30720159  0.97549480  0.09300620    -0.36000
C1123       C  0.32709493  0.97471141  0.11274085     0.16300
C1124       C  0.34304791  0.94897095  0.10942949     0.22100
C1125       C  0.34047113  0.92221610  0.08604063    -0.34100
C1126       C  0.32064822  0.92281798  0.06671749     0.16200
O1127       O  0.28676748  0.94269508  0.04987102    -0.26200
C1128       C  0.29176687  0.91317860  0.03421518     0.06000
C1129       C  0.31266109  0.89980231  0.04377900    -0.31000
O1130       O  0.35913286  0.95090998  0.13223147    -0.22900
C1131       C  0.35378021  0.97827040  0.15089470    -0.05700
C1132       C  0.33406328  0.99454180  0.13950225    -0.17300
H1133       H  0.29437846  0.99516161  0.09633606     0.20700
H1134       H  0.35268114  0.90148938  0.08405839     0.19100
H1135       H  0.32068573  0.87624856  0.03532556     0.19000
H1136       H  0.33257462  0.51855435  0.15184929     0.14900
C1137       C  0.31784508  0.92130235  0.86069911     0.30300
C1138       C  0.33912201  0.92142319  0.84421802    -0.36000
C1139       C  0.34176901  0.94543223  0.81785638     0.16300
C1140       C  0.32447700  0.96724423  0.80822746     0.22100
C1141       C  0.30343129  0.96741860  0.82489390    -0.34100
C1142       C  0.30091868  0.94388769  0.85138908     0.16200
O1143       O  0.31135684  0.90068673  0.88551418    -0.26200
C1144       C  0.29013418  0.91062032  0.89230391     0.06000
C1145       C  0.28280225  0.93741593  0.87188141    -0.31000
O1146       O  0.32966772  0.98537889  0.78124173    -0.22900
C1147       C  0.35073245  0.97571758  0.77355880    -0.02900
C1148       C  0.35929471  0.95104890  0.79561562    -0.17300
H1149       H  0.35249832  0.90369163  0.85107125     0.20700
H1150       H  0.28976707  0.98428094  0.81723070     0.19100
H1151       H  0.26638581  0.94995391  0.87185759     0.19000
H1152       H  0.37527662  0.93738581  0.79387036     0.14900
C1153       C  0.29630472  0.53654105  0.57096859     0.30300
C1154       C  0.29905419  0.51095599  0.59606053    -0.36000
C1155       C  0.31844941  0.51419295  0.61672152     0.16300
C1156       C  0.33377699  0.54074966  0.61263150     0.22100
C1157       C  0.33116189  0.56582076  0.58772213    -0.34100
C1158       C  0.31201103  0.56267787  0.56743078     0.16200
O1159       O  0.27921760  0.53984771  0.54945941    -0.26200
C1160       C  0.28431139  0.56852767  0.53230796     0.06000
C1161       C  0.30450565  0.58355807  0.54254935    -0.31000
O1162       O  0.34985027  0.54062768  0.63536203    -0.22900
C1163       C  0.34521650  0.51364108  0.65485131    -0.02900
C1164       C  0.32588627  0.49576900  0.64420198    -0.17300
H1165       H  0.28676197  0.49053635  0.59968562     0.20700
H1166       H  0.34301879  0.58696446  0.58493264     0.19100
H1167       H  0.31237317  0.60696764  0.53330655     0.19000
H1168       H  0.31215076  0.98637579  0.66475019     0.14900
C1169       C  0.45824100  0.85005907  0.71421643     0.30300
C1170       C  0.44285729  0.86458764  0.69134974    -0.36000
C1171       C  0.43234872  0.89523600  0.70160483     0.16300
C1172       C  0.43667320  0.91065284  0.73225708     0.22100
C1173       C  0.45237538  0.89637640  0.75498564    -0.34100
C1174       C  0.46291478  0.86560762  0.74471858     0.16200
O1175       O  0.46834247  0.82000407  0.71087228    -0.26200
C1176       C  0.48001456  0.81624186  0.73932512     0.06000
C1177       C  0.47725332  0.84387531  0.76142596    -0.31000
O1178       O  0.42377356  0.93795547  0.73754071    -0.22900
C1179       C  0.41105611  0.94015235  0.70985687    -0.02900
C1180       C  0.41579883  0.91421819  0.68657816    -0.17300
H1181       H  0.43872975  0.85214896  0.66771521     0.20700
H1182       H  0.45555025  0.90779821  0.77942970     0.19100
H1183       H  0.48369974  0.84648250  0.78684162     0.19000
H1184       H  0.40771569  0.90916288  0.66262264     0.14900
C1185       C  0.45671974  0.64184492  0.75412588     0.30300
C1186       C  0.44969262  0.60967883  0.76734440    -0.36000
C1187       C  0.43168164  0.59324868  0.75028489     0.16300
C1188       C  0.42163214  0.60784931  0.72237689     0.22100
C1189       C  0.42856835  0.63959500  0.70933534    -0.34100
C1190       C  0.44630163  0.65580846  0.72621760     0.16200
O1191       O  0.47292604  0.66216140  0.76587194    -0.26200
C1192       C  0.47267630  0.68934808  0.74512062     0.06000
C1193       C  0.45641117  0.68655701  0.72002017    -0.31000
O1194       O  0.40539053  0.58881619  0.70989600    -0.22900
C1195       C  0.40456918  0.56117910  0.72966908    -0.02900
C1196       C  0.42062156  0.56237416  0.75553074    -0.17300
H1197       H  0.45763828  0.59837882  0.78928657     0.20700
H1198       H  0.42058165  0.65093723  0.68743394     0.19100
H1199       H  0.45252334  0.70464393  0.70007334     0.19000
H1200       H  0.42381248  0.54338344  0.77492472     0.14900
C1201       C  0.69845857  0.54338298  0.92597312     0.30300
C1202       C  0.69696710  0.51793891  0.90070725    -0.36000
C1203       C  0.67636749  0.51655576  0.88286421     0.16300
C1204       C  0.65859556  0.53855978  0.88983124     0.22100
C1205       C  0.65999421  0.56365749  0.91507902    -0.34100
C1206       C  0.68054426  0.56531694  0.93248206     0.16200
O1207       O  0.71636508  0.55048097  0.94473831    -0.26200
C1208       C  0.70978450  0.57747295  0.96313773     0.06000
C1209       C  0.68766232  0.58776301  0.95652103    -0.31000
O1210       O  0.64177340  0.53521097  0.86852799    -0.22900
C1211       C  0.64852814  0.51078232  0.84716537    -0.02900
C1212       C  0.67357810  0.00358837  0.84895400    -0.17300
H1213       H  0.71534759  0.00464601  0.88760143     0.20700
H1214       H  0.64629474  0.58160420  0.91986721     0.19100
H1215       H  0.67827610  0.60891062  0.96762252     0.19000
H1216       H  0.68290835  0.98448663  0.83465139     0.14900
C1217       C  0.68154323  0.93616171  0.63233327     0.30300
C1218       C  0.66007579  0.93702649  0.64828580    -0.36000
C1219       C  0.65712059  0.96223776  0.67349156     0.16300
C1220       C  0.67422711  0.98470647  0.68245026     0.22100
C1221       C  0.69542090  0.98427885  0.66611503    -0.34100
C1222       C  0.69830999  0.95933526  0.64093206     0.16200
O1223       O  0.68845869  0.91400289  0.60906117    -0.26200
C1224       C  0.70986727  0.92339291  0.60260124     0.06000
C1225       C  0.71680161  0.95151442  0.62164653    -0.31000
O1226       O  0.66892130  0.00345625  0.70904370    -0.22900
C1227       C  0.64796249  0.99347003  0.71718405    -0.02900
C1228       C  0.63961451  0.96806443  0.69568655    -0.17300
H1229       H  0.64686168  0.91869521  0.64220383     0.20700
H1230       H  0.70902897  0.00144971  0.67339808     0.19100
H1231       H  0.73322470  0.96408067  0.62158716     0.19000
H1232       H  0.62389704  0.95374971  0.69806516     0.14900
C1233       C  0.53618193  0.63669871  0.75345724     0.30300
C1234       C  0.54547506  0.60797889  0.73638983    -0.36000
C1235       C  0.56036069  0.58715511  0.75528111     0.16300
C1236       C  0.56516795  0.59424867  0.78860187     0.22100
C1237       C  0.55576385  0.62235349  0.80559739    -0.34100
C1238       C  0.54142914  0.64328074  0.78674617     0.16200
O1239       O  0.52355127  0.66136575  0.74027824    -0.26200
C1240       C  0.52100206  0.68384635  0.76551809     0.06000
C1241       C  0.53176614  0.67386999  0.79494423    -0.31000
O1242       O  0.58068724  0.57393215  0.80102234    -0.22900
C1243       C  0.58638313  0.55317906  0.77570341    -0.02900
C1244       C  0.57404462  0.55979943  0.74639284    -0.17300
H1245       H  0.54217835  0.60318417  0.70994938     0.20700
H1246       H  0.56028420  0.62846507  0.83137131     0.19100
H1247       H  0.53298310  0.68782858  0.81851858     0.19000
H1248       H  0.57582522  0.54775356  0.72189174     0.14900
C1249       C  0.54336492  0.85958899  0.75878534     0.30300
C1250       C  0.54927595  0.89226277  0.74635260    -0.36000
C1251       C  0.56736621  0.90885574  0.76263112     0.16300
C1252       C  0.57882167  0.89447362  0.78943689     0.22100
C1253       C  0.57290676  0.86175574  0.80188616    -0.34100
C1254       C  0.55485516  0.84508927  0.78549426     0.16200
O1255       O  0.52719900  0.83935586  0.74702589    -0.26200
C1256       C  0.52820590  0.81139884  0.76647265     0.06000
C1257       C  0.54520287  0.81364036  0.79082572    -0.31000
O1258       O  0.59516330  0.91465188  0.80084478    -0.22900
C1259       C  0.59425691  0.94231472  0.78095099    -0.02900
C1260       C  0.57721874  0.94001567  0.75675139    -0.17300
H1261       H  0.54045428  0.90387815  0.72532679     0.20700
H1262       H  0.58180509  0.85005295  0.82279263     0.19100
H1263       H  0.54980775  0.79482972  0.80975272     0.19000
H1264       H  0.57247924  0.95858814  0.73770871     0.14900
C1265       C  0.82629217  0.72462726  0.87719449     0.30300
C1266       C  0.81684680  0.73209552  0.90923011    -0.36000
C1267       C  0.80356032  0.70580903  0.92419277     0.16300
C1268       C  0.80030712  0.67427472  0.90888847     0.22100
C1269       C  0.80923532  0.66717917  0.87686683    -0.34100
C1270       C  0.82200545  0.69345662  0.86182684     0.16200
O1271       O  0.84005478  0.74444346  0.85883275    -0.26200
C1272       C  0.84423878  0.72557046  0.83129632     0.06000
C1273       C  0.83314843  0.69392835  0.83190028    -0.31000
O1274       O  0.78866978  0.65256648  0.92780101    -0.22900
C1275       C  0.78383733  0.67038958  0.95551301    -0.02900
C1276       C  0.79248333  0.70385393  0.95470450    -0.17300
H1277       H  0.81989438  0.75637646  0.92179310     0.20700
H1278       H  0.80669046  0.64255420  0.86468139     0.19100
H1279       H  0.83400341  0.67354953  0.81329637     0.19000
H1280       H  0.79150345  0.72328366  0.97422919     0.14900
C1281       C  0.82478157  0.76389360  0.67539750     0.30300
C1282       C  0.80380629  0.76380085  0.65861777    -0.36000
C1283       C  0.80002712  0.79107883  0.63607917     0.16300
C1284       C  0.81573963  0.81687130  0.63056451     0.22100
C1285       C  0.83687354  0.81670924  0.64705743    -0.34100
C1286       C  0.84077361  0.78917284  0.66938060     0.16200
O1287       O  0.83083006  0.74277980  0.69983196    -0.26200
C1288       C  0.85120034  0.75410553  0.70932829     0.06000
C1289       C  0.85833561  0.78281573  0.69101741    -0.31000
O1290       O  0.80835204  0.84044819  0.60917801    -0.22900
C1291       C  0.78768004  0.82949757  0.60069397    -0.02900
C1292       C  0.78164999  0.79884562  0.61666353    -0.17300
H1293       H  0.79105165  0.74431501  0.66351627     0.20700
H1294       H  0.84921814  0.83703078  0.64329088     0.19100
H1295       H  0.87317297  0.79865543  0.69535974     0.19000
H1296       H  0.76596602  0.78448317  0.61438837     0.14900
C1297       C  0.16248554  0.78779845  0.81605083     0.30300
C1298       C  0.16299422  0.81088733  0.84337251    -0.36000
C1299       C  0.18354180  0.81272194  0.86126157     0.16300
C1300       C  0.20222289  0.79284705  0.85320244     0.22100
C1301       C  0.20176021  0.76994909  0.82578033    -0.34100
C1302       C  0.18133401  0.76846043  0.80765480     0.16200
O1303       O  0.14537495  0.78289320  0.79504018    -0.26200
C1304       C  0.15345201  0.76033136  0.77267923     0.06000
C1305       C  0.17574613  0.75047568  0.77941463    -0.31000
O1306       O  0.21973383  0.79891153  0.87311718    -0.22900
C1307       C  0.21227808  0.82329358  0.89403929    -0.02900
C1308       C  0.18989873  0.83293013  0.88773987    -0.17300
H1309       H  0.14852256  0.82677662  0.84985705     0.20700
H1310       H  0.21643816  0.75476177  0.81870398     0.19100
H1311       H  0.18647540  0.73305481  0.76519308     0.19000
H1312       H  0.17983973  0.85218207  0.90071099     0.14900
C1313       C  0.15842874  0.68949174  0.61250372     0.30300
C1314       C  0.16176651  0.66109992  0.59132080    -0.36000
C1315       C  0.17984985  0.66363788  0.56841889     0.16300
C1316       C  0.19374201  0.69220325  0.56631206     0.22100
C1317       C  0.19017702  0.72095464  0.58729558    -0.34100
C1318       C  0.17200798  0.71838218  0.61038492     0.16200
O1319       O  0.14356342  0.69124541  0.63729437    -0.26200
C1320       C  0.14743211  0.72168774  0.65152282     0.06000
C1321       C  0.16481544  0.73999756  0.63551190    -0.31000
O1322       O  0.21023718  0.68823398  0.54388379    -0.22900
C1323       C  0.20672890  0.65676441  0.53156937    -0.02900
C1324       C  0.18802537  0.64036387  0.54586393    -0.17300
H1325       H  0.15137583  0.63817125  0.59326786     0.20700
H1326       H  0.20113867  0.74331757  0.58630077     0.19100
H1327       H  0.17189056  0.76466213  0.64259152     0.19000
H1328       H  0.18163221  0.61476096  0.54077124     0.14900
C1329       C  0.04755624  0.89467593  0.71027734     0.30300
C1330       C  0.06478367  0.87988583  0.69042278    -0.36000
C1331       C  0.07384926  0.84881455  0.70227367     0.16300
C1332       C  0.06663047  0.83337747  0.73181394     0.22100
C1333       C  0.04921139  0.84806990  0.75161480    -0.34100
C1334       C  0.03997463  0.87911812  0.73957755     0.16200
O1335       O  0.03759640  0.92447800  0.70462085    -0.26200
C1336       C  0.02306327  0.92806378  0.73026450     0.06000
C1337       C  0.02386749  0.90059538  0.75295205    -0.31000
O1338       O  0.07799238  0.80485187  0.73849332    -0.22900
C1339       C  0.09256091  0.80184142  0.71273344    -0.02900
C1340       C  0.09067125  0.82855146  0.68943882    -0.17300
H1341       H  0.07093418  0.89205612  0.66753417     0.20700
H1342       H  0.04347338  0.83635948  0.77496133     0.19100
H1343       H  0.01474342  0.89773295  0.77659846     0.19000
H1344       H  0.10047131  0.83281472  0.66661428     0.14900
C1345       C  0.03911818  0.60615339  0.73960310     0.30300
C1346       C  0.04029590  0.64225832  0.73735912    -0.36000
C1347       C  0.06184173  0.65700232  0.74247398     0.16300
C1348       C  0.08083935  0.63741610  0.74917062     0.22100
C1349       C  0.07957084  0.60148320  0.75187289    -0.34100
C1350       C  0.05812407  0.58685663  0.74665559     0.16200
O1351       O  0.02097852  0.58684514  0.73452004    -0.26200
C1352       C  0.02842301  0.55465311  0.73817270     0.06000
C1353       C  0.05151244  0.55334143  0.74583642    -0.31000
O1354       O  0.09971437  0.65558658  0.74817916    -0.22900
C1355       C  0.09287346  0.68747839  0.74147865    -0.02900
C1356       C  0.06941875  0.68995021  0.73779190    -0.17300
H1357       H  0.02563981  0.65763248  0.73081849     0.20700
H1358       H  0.09450751  0.58587249  0.75611133     0.19100
H1359       H  0.06196486  0.53098938  0.75063388     0.19000
H1360       H  0.05980447  0.71175590  0.72864890     0.14900
C1361       C  0.96197784  0.60450342  0.74082637     0.30300
C1362       C  0.95334954  0.63457569  0.72551759    -0.36000
C1363       C  0.93744350  0.65348761  0.74469772     0.16300
C1364       C  0.93086642  0.64328066  0.77664937     0.22100
C1365       C  0.93963709  0.61374474  0.79200200    -0.34100
C1366       C  0.95523540  0.59488948  0.77289096     0.16200
O1367       O  0.97571071  0.58158998  0.72688466    -0.26200
C1368       C  0.97781220  0.55731072  0.75053145     0.06000
C1369       C  0.96534094  0.56422956  0.77957663    -0.31000
O1370       O  0.91490111  0.66284132  0.78945507    -0.22900
C1371       C  0.91084681  0.68628334  0.76574787    -0.02900
C1372       C  0.92456019  0.68200801  0.73717630    -0.17300
H1373       H  0.95810203  0.64200453  0.70009812     0.20700
H1374       H  0.93402096  0.60537136  0.81675994     0.19100
H1375       H  0.96344495  0.54835789  0.80189896     0.19000
H1376       H  0.92436831  0.69663976  0.71392175     0.14900
C1377       C  0.94724714  0.89900600  0.77018342     0.30300
C1378       C  0.92992312  0.88482210  0.79045433    -0.36000
C1379       C  0.92133112  0.85275319  0.78025950     0.16300
C1380       C  0.92912066  0.83583495  0.75189108     0.22100
C1381       C  0.94650608  0.85001755  0.73156480    -0.34100
C1382       C  0.95524876  0.88203861  0.74195369     0.16200
O1383       O  0.95747668  0.92884346  0.77504388    -0.26200
C1384       C  0.97257052  0.93107685  0.74991163     0.06000
C1385       C  0.97180404  0.90266792  0.72834244    -0.31000
O1386       O  0.91858169  0.80617556  0.74707046    -0.22900
C1387       C  0.90386242  0.80390317  0.77276831    -0.02900
C1388       C  0.90488582  0.83229618  0.79420982    -0.17300
H1389       H  0.92357990  0.89791382  0.81269860     0.20700
H1390       H  0.95280313  0.83697028  0.70926339     0.19100
H1391       H  0.98166200  0.89819556  0.70561353     0.19000
H1392       H  0.89497553  0.83730013  0.81676331     0.14900
loop_ 
_geom_bond_atom_site_label_1 
_geom_bond_atom_site_label_2 
_geom_bond_distance 
_geom_bond_site_symmetry_2 
_ccdc_geom_bond_type 
C1            C2   1.416   1_655  A
C1          C702   1.405       .  A
C1          C688   1.488       .  S
C2            C3   1.406       .  A
C2          C640   1.480       .  S
C3          C700   1.409       .  A
C3            H8   1.083       .  S
C4            C5   1.417   1_455  A
C4          C699   1.414   1_545  A
C4          C656   1.508       .  S
C5            C6   1.411   1_545  A
C5          C672   1.481       .  S
C6          C697   1.408       .  A
C6            H7   1.085       .  S
C9           C10   1.529       .  S
C9           C15   1.531       .  S
C9           C13   1.535       .  S
C9          C624   1.512       .  S
C10          H17   1.087       .  S
C10          C11   1.357       .  D
C11          C12   1.547       .  S
C11         C659   1.480       .  S
C12          C16   1.551       .  S
C12          C14   1.545       .  S
C12          H18   1.111       .  S
C13          H19   1.085       .  S
C13          C14   1.372       .  D
C14         C643   1.482       .  S
C15          H20   1.086       .  S
C15          C16   1.370       .  D
C16         C608   1.486       .  S
C21          C22   1.523       .  S
C21          C27   1.526       .  S
C21          C25   1.542       .  S
C21         C576   1.510       .  S
C22          H29   1.087       .  S
C22          C23   1.359       .  D
C23          C24   1.550       .  S
C23         C675   1.484       .  S
C24          C28   1.548       .  S
C24          C26   1.547       .  S
C24          H30   1.110       .  S
C25          H31   1.085       .  S
C25          C26   1.380       .  D
C26         C691   1.487       .  S
C27          H32   1.087       .  S
C27          C28   1.361       .  D
C28         C592   1.479       .  S
C33          C34   1.525       .  S
C33         C735   1.530       .  S
C33         C733   1.541   1_545  S
C33         C515   1.520       .  S
C34          H41   1.086       .  S
C34          C35   1.359       .  D
C35         C732   1.547       .  S
C35         C547   1.487       .  S
C36          C40   1.554       .  S
C36          C38   1.547       .  S
C36         C731   1.547       .  S
C36          H42   1.108       .  S
C37         C729   1.540       .  S
C37          H43   1.086       .  S
C37          C38   1.375       .  D
C38         C563   1.488       .  S
C39         C729   1.531       .  S
C39          H44   1.086       .  S
C39          C40   1.367       .  D
C40         C531   1.484       .  S
C45          C46   1.414       .  A
C45          C50   1.407       .  A
C45         C560   1.486       .  S
C46          C47   1.407       .  A
C46         C480   1.487       .  S
C47          C48   1.412       .  A
C47          H52   1.082       .  S
C48          C49   1.413       .  A
C48         C496   1.495       .  S
C49          C50   1.410       .  A
C49         C544   1.485       .  S
C50          H51   1.084       .  S
C53          C54   1.526   1_565  S
C53         C755   1.531       .  S
C53         C753   1.538       .  S
C53         C467   1.517   1_565  S
C54          H61   1.087       .  S
C54          C55   1.363       .  D
C55         C752   1.547   1_545  S
C55         C499   1.483       .  S
C56          C60   1.553       .  S
C56          C58   1.546       .  S
C56         C751   1.548       .  S
C56          H62   1.110       .  S
C57         C749   1.536       .  S
C57          H63   1.085       .  S
C57          C58   1.376       .  D
C58         C483   1.488       .  S
C59         C749   1.529       .  S
C59          H64   1.086       .  S
C59          C60   1.369       .  D
C60         C451   1.483       .  S
O65         Ni73   1.926       .  S
O65          C75   1.282       .  A
O66         Ni73   1.927   1_554  S
O66          C76   1.282       .  A
O67         Ni73   1.925       .  S
O67          C77   1.282       .  A
O68         Ni73   1.915   1_554  S
O68          C78   1.281       .  A
O69         Ni74   1.938   1_554  S
O69          C78   1.284       .  A
O70         Ni74   1.928       .  S
O70          C77   1.283       .  A
O71         Ni74   1.924   1_554  S
O71          C76   1.281       .  A
O72         Ni74   1.924       .  S
O72          C75   1.282       .  A
Ni73        Ni74   2.388       .  S
C75         C448   1.476       .  S
C76         C419   1.475       .  S
C77         C611   1.479       .  S
C78         C432   1.481       .  S
C79          C80   1.409   1_455  A
C79         C780   1.405       .  A
C79         C355   1.485       .  S
C80         C777   1.409       .  A
C80         C400   1.489       .  S
C81          C82   1.415       .  A
C81         C776   1.406   1_545  A
C81          H86   1.080       .  S
C82          C83   1.422   1_655  A
C82         C387   1.498       .  S
C83          C84   1.405       .  A
C83         C371   1.488       .  S
C84         C775   1.405   1_545  A
C84          H85   1.083       .  S
C87          C88   1.533       .  S
C87          C93   1.525       .  S
C87          C91   1.542       .  S
C87         C416   1.519       .  S
C88          H95   1.086       .  S
C88          C89   1.366       .  D
C89          C90   1.540       .  S
C89         C336   1.473       .  S
C90          C94   1.542       .  S
C90          C92   1.542       .  S
C90          H96   1.107       .  S
C91          H97   1.086       .  S
C91          C92   1.375       .  D
C92         C368   1.486       .  S
C93          H98   1.086       .  S
C93          C94   1.361       .  D
C94         C352   1.477       .  S
C99         C100   1.535       .  S
C99         C105   1.530       .  S
C99         C103   1.540       .  S
C99         C323   1.514       .  S
C100        H107   1.086       .  S
C100        C101   1.364       .  D
C101        C102   1.546       .  S
C101        C304   1.482       .  S
C102        C106   1.544       .  S
C102        C104   1.539       .  S
C102        H108   1.111       .  S
C103        H109   1.086       .  S
C103        C104   1.371       .  D
C104        C403   1.483       .  S
C105        H110   1.087       .  S
C105        C106   1.363       .  D
C106        C384   1.471       .  S
C111        C117   1.530   1_565  S
C111        C808   1.532       .  S
C111        C811   1.539       .  S
C111        C259   1.511   1_565  S
C112        C807   1.534       .  S
C112        H119   1.086       .  S
C112        C113   1.366       .  D
C113        C114   1.544       .  S
C113        C243   1.478       .  S
C114        C116   1.543       .  S
C114        C814   1.541       .  S
C114        H120   1.110       .  S
C115        C807   1.540       .  S
C115        H121   1.086       .  S
C115        C116   1.371       .  D
C116        C288   1.482       .  S
C117        H122   1.087       .  S
C117        C118   1.359       .  D
C118        C810   1.543   1_545  S
C118        C275   1.472       .  S
C123        C124   1.530       .  S
C123        C129   1.528       .  S
C123        C823   1.548       .  S
C123        C435   1.521       .  S
C124        H131   1.087       .  S
C124        C821   1.364       .  D
C125        C126   1.544       .  S
C125        C820   1.366       .  D
C125        C192   1.481   1_565  S
C126        C128   1.543   1_565  S
C126        C826   1.541       .  S
C126        H132   1.107       .  S
C127        C819   1.548   1_545  S
C127        H133   1.086       .  S
C127        C128   1.378       .  D
C128        C227   1.489       .  S
C129        H134   1.086       .  S
C129        C130   1.359       .  D
C130        C822   1.542       .  S
C130        C211   1.481       .  S
C135        C136   1.410       .  A
C135        C140   1.405       .  A
C135        C208   1.476       .  S
C136        C137   1.405       .  A
C136        C291   1.483       .  S
C137        C138   1.407       .  A
C137        H142   1.085       .  S
C138        C139   1.418       .  A
C138        C272   1.480       .  S
C139        C140   1.406       .  A
C139        C224   1.489       .  S
C140        H141   1.084       .  S
O143       Ni151   1.915   1_556  S
O143        C153   1.280       .  A
O144       Ni151   1.924       .  S
O144        C154   1.282       .  A
O145       Ni151   1.928   1_556  S
O145        C155   1.282       .  A
O146       Ni151   1.928       .  S
O146        C156   1.282       .  A
O147       Ni152   1.918       .  S
O147        C156   1.281       .  A
O148       Ni152   1.917   1_556  S
O148        C155   1.282       .  A
O149       Ni152   1.913       .  S
O149        C154   1.279       .  A
O150       Ni152   1.921   1_556  S
O150        C153   1.280       .  A
Ni151      Ni152   2.389       .  S
C153        C579   1.464       .  S
C154        C256   1.466       .  S
C155        C512   1.475       .  S
C156        C320   1.474       .  S
O157       Ni165   1.921       .  S
O157        C167   1.281       .  A
O158       Ni165   1.918       .  S
O158        C168   1.281       .  A
O159       Ni165   1.922       .  S
O159        C169   1.281       .  A
O160       Ni165   1.926       .  S
O160        C170   1.281       .  A
O161       Ni166   1.912       .  S
O161        C170   1.281       .  A
O162       Ni166   1.925       .  S
O162        C169   1.282       .  A
O163       Ni166   1.920       .  S
O163        C168   1.280       .  A
O164       Ni166   1.917       .  S
O164        C167   1.281       .  A
Ni165      Ni166   2.390       .  S
C167        C339   1.470       .  S
C168        C464   1.467       .  S
C169        C195   1.475       .  S
C170        C627   1.471       .  S
O171       Ni179   1.927       .  S
O171        C181   1.282       .  A
O172       Ni179   1.931       .  S
O172        C182   1.284       .  A
O173       Ni179   1.920       .  S
O173        C183   1.282       .  A
O174       Ni179   1.915       .  S
O174        C184   1.279       .  A
O175       Ni180   1.931       .  S
O175        C184   1.284       .  A
O176       Ni180   1.926       .  S
O176        C183   1.282       .  A
O177       Ni180   1.921       .  S
O177        C182   1.281       .  A
O178       Ni180   1.926       .  S
O178        C181   1.282       .  A
Ni179      Ni180   2.388       .  S
C181        C528   1.479       .  S
C182        C307   1.478       .  S
C183        C595   1.476       .  S
C184        C240   1.475       .  S
C185        C190   1.380       .  A
C185        C186   1.405       .  A
C185        O191   1.320   1_545  A
C186        C187   1.404       .  A
C186        H197   1.082   1_545  S
C187        C196   1.364       .  A
C187        C188   1.380       .  A
C188        C189   1.406       .  A
C188        O194   1.321       .  A
C189        C190   1.405       .  A
C189        H198   1.082       .  S
C190        C193   1.364       .  A
O191        C192   1.332   1_565  A
C192        C193   1.392       .  A
C193        H199   1.083       .  S
O194        C195   1.332       .  A
C195        C196   1.392       .  A
C196        H200   1.082       .  S
C201        C206   1.380       .  A
C201        C202   1.412       .  A
C201        O207   1.324       .  A
C202        C203   1.410       .  A
C202        H213   1.082       .  S
C203        C212   1.375       .  A
C203        C204   1.380       .  A
C204        C205   1.396       .  A
C204        O210   1.309       .  A
C205        C206   1.394       .  A
C205        H214   1.083       .  S
C206        C209   1.355       .  A
O207        C208   1.335       .  A
C208        C209   1.385       .  A
C209        H215   1.083       .  S
O210        C211   1.328       .  A
C211        C212   1.396       .  A
C212        H216   1.082       .  S
C217        C222   1.380       .  A
C217        C218   1.404       .  A
C217        O223   1.322       .  A
C218        C219   1.405       .  A
C218        H229   1.082       .  S
C219        C228   1.359       .  A
C219        C220   1.379       .  A
C220        C221   1.406       .  A
C220        O226   1.324       .  A
C221        C222   1.407       .  A
C221        H230   1.082       .  S
C222        C225   1.362       .  A
O223        C224   1.332       .  A
C224        C225   1.395       .  A
C225        H231   1.082       .  S
O226        C227   1.333       .  A
C227        C228   1.395       .  A
C228        H232   1.081       .  S
C233        C238   1.380       .  A
C233        C234   1.406       .  A
C233        O239   1.320       .  A
C234        C235   1.405       .  A
C234        H245   1.082       .  S
C235        C244   1.366       .  A
C235        C236   1.380       .  A
C236        C237   1.405       .  A
C236        O242   1.319       .  A
C237        C238   1.403       .  A
C237        H246   1.082       .  S
C238        C241   1.365       .  A
O239        C240   1.332       .  A
C240        C241   1.392       .  A
C241        H247   1.082       .  S
O242        C243   1.331       .  A
C243        C244   1.392       .  A
C244        H248   1.083       .  S
C249        C254   1.381       .  A
C249        C250   1.403       .  A
C249        O255   1.317       .  A
C250        C251   1.401       .  A
C250        H261   1.082       .  S
C251        C260   1.361       .  A
C251        C252   1.379       .  A
C252        C253   1.405       .  A
C252        O258   1.319       .  A
C253        C254   1.403       .  A
C253        H262   1.082       .  S
C254        C257   1.365       .  A
O255        C256   1.330       .  A
C256        C257   1.390       .  A
C257        H263   1.082       .  S
O258        C259   1.333       .  A
C259        C260   1.393       .  A
C260        H264   1.082       .  S
C265        C270   1.380       .  A
C265        C266   1.407       .  A
C265        O271   1.319       .  A
C266        C267   1.405       .  A
C266        H277   1.082       .  S
C267        C276   1.368       .  A
C267        C268   1.380       .  A
C268        C269   1.403       .  A
C268        O274   1.315       .  A
C269        C270   1.400       .  A
C269        H278   1.082       .  S
C270        C273   1.362       .  A
O271        C272   1.332       .  A
C272        C273   1.391       .  A
C273        H279   1.083       .  S
O274        C275   1.330       .  A
C275        C276   1.390       .  A
C276        H280   1.082       .  S
C281        C286   1.380       .  A
C281        C282   1.405       .  A
C281        O287   1.321       .  A
C282        C283   1.404       .  A
C282        H293   1.082       .  S
C283        C292   1.362       .  A
C283        C284   1.380       .  A
C284        C285   1.405       .  A
C284        O290   1.322       .  A
C285        C286   1.405       .  A
C285        H294   1.082       .  S
C286        C289   1.363       .  A
O287        C288   1.332       .  A
C288        C289   1.393       .  A
C289        H295   1.082       .  S
O290        C291   1.332       .  A
C291        C292   1.393       .  A
C292        H296   1.082       .  S
C297        C302   1.380       .  A
C297        C298   1.407       .  A
C297        O303   1.319       .  A
C298        C299   1.405       .  A
C298        H309   1.082       .  S
C299        C308   1.367       .  A
C299        C300   1.380       .  A
C300        C301   1.407       .  A
C300        O306   1.321       .  A
C301        C302   1.405       .  A
C301        H310   1.082       .  S
C302        C305   1.368       .  A
O303        C304   1.333       .  A
C304        C305   1.391       .  A
C305        H311   1.082       .  S
O306        C307   1.333       .  A
C307        C308   1.393       .  A
C308        H312   1.082       .  S
C313        C318   1.380       .  A
C313        C314   1.407       .  A
C313        O319   1.323       .  A
C314        C315   1.407       .  A
C314        H325   1.082       .  S
C315        C324   1.365       .  A
C315        C316   1.379       .  A
C316        C317   1.402       .  A
C316        O322   1.318       .  A
C317        C318   1.402       .  A
C317        H326   1.082       .  S
C318        C321   1.361       .  A
O319        C320   1.333       .  A
C320        C321   1.390       .  A
C321        H327   1.082       .  S
O322        C323   1.332       .  A
C323        C324   1.396       .  A
C324        H328   1.082       .  S
C329        C334   1.381       .  A
C329        C330   1.405       .  A
C329        O335   1.320       .  A
C330        C331   1.404       .  A
C330        H341   1.082       .  S
C331        C340   1.363       .  A
C331        C332   1.381       .  A
C332        C333   1.401       .  A
C332        O338   1.318       .  A
C333        C334   1.401       .  A
C333        H342   1.082       .  S
C334        C337   1.359       .  A
O335        C336   1.331       .  A
C336        C337   1.390       .  A
C337        H343   1.082       .  S
O338        C339   1.330       .  A
C339        C340   1.393       .  A
C340        H344   1.082       .  S
C345        C350   1.380       .  A
C345        C346   1.393       .  A
C345        O351   1.307       .  A
C346        C347   1.391       .  A
C346        H357   1.083       .  S
C347        C356   1.350       .  A
C347        C348   1.378       .  A
C348        C349   1.412       .  A
C348        O354   1.323       .  A
C349        C350   1.410       .  A
C349        H358   1.082       .  S
C350        C353   1.373       .  A
O351        C352   1.327       .  A
C352        C353   1.397       .  A
C353        H359   1.082       .  S
O354        C355   1.337       .  A
C355        C356   1.389       .  A
C356        H360   1.082       .  S
C361        C366   1.379       .  A
C361        C362   1.401       .  A
C361        O367   1.320       .  A
C362        C363   1.402       .  A
C362        H373   1.082       .  S
C363        C372   1.357       .  A
C363        C364   1.380       .  A
C364        C365   1.407       .  A
C364        O370   1.324       .  A
C365        C366   1.408       .  A
C365        H374   1.082       .  S
C366        C369   1.363       .  A
O367        C368   1.331       .  A
C368        C369   1.397       .  A
C369        H375   1.081       .  S
O370        C371   1.334       .  A
C371        C372   1.393       .  A
C372        H376   1.083       .  S
C377        C382   1.381       .  A
C377        C378   1.402       .  A
C377        O383   1.319       .  A
C378        C379   1.402       .  A
C378        H389   1.082       .  S
C379        C388   1.357       .  A
C379        C380   1.377       .  A
C380        C381   1.404       .  A
C380        O386   1.320       .  A
C381        C382   1.405       .  A
C381        H390   1.082       .  S
C382        C385   1.363       .  A
O383        C384   1.330       .  A
C384        C385   1.391       .  A
C385        H391   1.083       .  S
O386        C387   1.333       .  A
C387        C388   1.399       .  A
C388        H392   1.081       .  S
C393        C398   1.380       .  A
C393        C394   1.406       .  A
C393        O399   1.321       .  A
C394        C395   1.405       .  A
C394        H405   1.082       .  S
C395        C404   1.365       .  A
C395        C396   1.380       .  A
C396        C397   1.407       .  A
C396        O402   1.322       .  A
C397        C398   1.406       .  A
C397        H406   1.082       .  S
C398        C401   1.366       .  A
O399        C400   1.333       .  A
C400        C401   1.394       .  A
C401        H407   1.082       .  S
O402        C403   1.332       .  A
C403        C404   1.393       .  A
C404        H408   1.082       .  S
C409        C414   1.379       .  A
C409        C410   1.406       .  A
C409        O415   1.322       .  A
C410        C411   1.406       .  A
C410        H421   1.082       .  S
C411        C420   1.365       .  A
C411        C412   1.380       .  A
C412        C413   1.406       .  A
C412        O418   1.322       .  A
C413        C414   1.405       .  A
C413        H422   1.082       .  S
C414        C417   1.362       .  A
O415        C416   1.334       .  A
C416        C417   1.396       .  A
C417        H423   1.082       .  S
O418        C419   1.332       .  A
C419        C420   1.392       .  A
C420        H424   1.082       .  S
C425        C430   1.379       .  A
C425        C426   1.412       .  A
C425        O431   1.326       .  A
C426        C427   1.411       .  A
C426        H437   1.082       .  S
C427        C436   1.373       .  A
C427        C428   1.378       .  A
C428        C429   1.401       .  A
C428        O434   1.314       .  A
C429        C430   1.400       .  A
C429        H438   1.083       .  S
C430        C433   1.360       .  A
O431        C432   1.335       .  A
C432        C433   1.391       .  A
C433        H439   1.083       .  S
O434        C435   1.332       .  A
C435        C436   1.397       .  A
C436       H1136   1.082       .  S
H440       C1132   1.082   1_545  S
C441        C446   1.380       .  A
C441        C442   1.409       .  A
C441        O447   1.323       .  A
C442        C443   1.408       .  A
C442        H453   1.082       .  S
C443        C452   1.369       .  A
C443        C444   1.380       .  A
C444        C445   1.404       .  A
C444        O450   1.318       .  A
C445        C446   1.402       .  A
C445        H454   1.082       .  S
C446        C449   1.362       .  A
O447        C448   1.334       .  A
C448        C449   1.391       .  A
C449        H455   1.083       .  S
O450        C451   1.332       .  A
C451        C452   1.394       .  A
C452        H456   1.082       .  S
C457        C462   1.380       .  A
C457        C458   1.404       .  A
C457        O463   1.320       .  A
C458        C459   1.404       .  A
C458        H469   1.082       .  S
C459        C468   1.362   1_545  A
C459        C460   1.378       .  A
C460        C461   1.403       .  A
C460        O466   1.318       .  A
C461        C462   1.402       .  A
C461        H470   1.082       .  S
C462        C465   1.361       .  A
O463        C464   1.331       .  A
C464        C465   1.390       .  A
C465        H471   1.082       .  S
O466        C467   1.332       .  A
C467        C468   1.398   1_545  A
C468       H1168   1.081       .  S
H472       C1164   1.082       .  S
C473        C478   1.379       .  A
C473        C474   1.402       .  A
C473        O479   1.317       .  A
C474        C475   1.401       .  A
C474        H485   1.082       .  S
C475        C484   1.361       .  A
C475        C476   1.379       .  A
C476        C477   1.409       .  A
C476        O482   1.323       .  A
C477        C478   1.408       .  A
C477        H486   1.082       .  S
C478        C481   1.368       .  A
O479        C480   1.331       .  A
C480        C481   1.396       .  A
C481        H487   1.082       .  S
O482        C483   1.334       .  A
C483        C484   1.393       .  A
C484        H488   1.082       .  S
C489        C494   1.377       .  A
C489        C490   1.413       .  A
C489        O495   1.325       .  A
C490        C491   1.411       .  A
C490        H501   1.082       .  S
C491        C500   1.374       .  A
C491        C492   1.379       .  A
C492        C493   1.397       .  A
C492        O498   1.311       .  A
C493        C494   1.395       .  A
C493        H502   1.082       .  S
C494        C497   1.355       .  A
O495        C496   1.338       .  A
C496        C497   1.392       .  A
C497        H503   1.082       .  S
O498        C499   1.329       .  A
C499        C500   1.397       .  A
C500        H504   1.082       .  S
C505        C510   1.379       .  A
C505        C506   1.412       .  A
C505        O511   1.325       .  A
C506        C507   1.411       .  A
C506       H1213   1.082       .  S
C507        C508   1.378       .  A
C507       C1212   1.374       .  A
C508        C509   1.399       .  A
C508        O514   1.312       .  A
C509        C510   1.397       .  A
C509        H518   1.082       .  S
C510        C513   1.357       .  A
O511        C512   1.335       .  A
C512        C513   1.388       .  A
C513        H519   1.083       .  S
O514        C515   1.331       .  A
C515       C1212   1.398       .  A
C516       C1203   1.372       .  A
C516       C1211   1.397       .  A
C516        H520   1.082       .  S
H517       C1202   1.082       .  S
C521        C526   1.380       .  A
C521        C522   1.407       .  A
C521        O527   1.322       .  A
C522        C523   1.406       .  A
C522        H533   1.082       .  S
C523        C532   1.367       .  A
C523        C524   1.379       .  A
C524        C525   1.407       .  A
C524        O530   1.320       .  A
C525        C526   1.406       .  A
C525        H534   1.082       .  S
C526        C529   1.366       .  A
O527        C528   1.333       .  A
C528        C529   1.394       .  A
C529        H535   1.082       .  S
O530        C531   1.334       .  A
C531        C532   1.392       .  A
C532        H536   1.082       .  S
C537        C542   1.379       .  A
C537        C538   1.416       .  A
C537        O543   1.326       .  A
C538        C539   1.413       .  A
C538        H549   1.082       .  S
C539        C548   1.380       .  A
C539        C540   1.379       .  A
C540        C541   1.395       .  A
C540        O546   1.307       .  A
C541        C542   1.392       .  A
C541        H550   1.083       .  S
C542        C545   1.354       .  A
O543        C544   1.338       .  A
C544        C545   1.387       .  A
C545        H551   1.083       .  S
O546        C547   1.328       .  A
C547        C548   1.399       .  A
C548        H552   1.082       .  S
C553        C558   1.380       .  A
C553        C554   1.405       .  A
C553        O559   1.322       .  A
C554        C555   1.405       .  A
C554        H565   1.082       .  S
C555        C564   1.363       .  A
C555        C556   1.379       .  A
C556        C557   1.405       .  A
C556        O562   1.321       .  A
C557        C558   1.405       .  A
C557        H566   1.082       .  S
C558        C561   1.362       .  A
O559        C560   1.332       .  A
C560        C561   1.394       .  A
C561        H567   1.082       .  S
O562        C563   1.333       .  A
C563        C564   1.395       .  A
C564        H568   1.081       .  S
C569        C574   1.380       .  A
C569        C570   1.410       .  A
C569        O575   1.327       .  A
C570        C571   1.411       .  A
C570        H581   1.082       .  S
C571        C580   1.369       .  A
C571        C572   1.381       .  A
C572        C573   1.395       .  A
C572        O578   1.314       .  A
C573        C574   1.395       .  A
C573        H582   1.083       .  S
C574        C577   1.349       .  A
O575        C576   1.335       .  A
C576        C577   1.390       .  A
C577        H583   1.083       .  S
O578        C579   1.326       .  A
C579        C580   1.394       .  A
C580        H584   1.082       .  S
C585        C590   1.380       .  A
C585        C586   1.403       .  A
C585        O591   1.317       .  A
C586        C587   1.401       .  A
C586        H597   1.082       .  S
C587        C596   1.361       .  A
C587        C588   1.380       .  A
C588        C589   1.408       .  A
C588        O594   1.323       .  A
C589        C590   1.407       .  A
C589        H598   1.082       .  S
C590        C593   1.369       .  A
O591        C592   1.332       .  A
C592        C593   1.393       .  A
C593        H599   1.082       .  S
O594        C595   1.333       .  A
C595        C596   1.391       .  A
C596        H600   1.083       .  S
C601        C606   1.380       .  A
C601        C602   1.410       .  A
C601        O607   1.325       .  A
C602        C603   1.409       .  A
C602        H613   1.082       .  S
C603        C612   1.369       .  A
C603        C604   1.380       .  A
C604        C605   1.403       .  A
C604        O610   1.320       .  A
C605        C606   1.403       .  A
C605        H614   1.082       .  S
C606        C609   1.361       .  A
O607        C608   1.334       .  A
C608        C609   1.393       .  A
C609        H615   1.082       .  S
O610        C611   1.331       .  A
C611        C612   1.395       .  A
C612        H616   1.082       .  S
C617        C622   1.379       .  A
C617        C618   1.397       .  A
C617        O623   1.310       .  A
C618        C619   1.395       .  A
C618        H629   1.083       .  S
C619        C628   1.355       .  A
C619        C620   1.380       .  A
C620        C621   1.410       .  A
C620        O626   1.323       .  A
C621        C622   1.409       .  A
C621        H630   1.082       .  S
C622        C625   1.371       .  A
O623        C624   1.329       .  A
C624        C625   1.396       .  A
C625        H631   1.082       .  S
O626        C627   1.334       .  A
C627        C628   1.388       .  A
C628        H632   1.083       .  S
C633        C638   1.380       .  A
C633        C634   1.405       .  A
C633        O639   1.319       .  A
C634        C635   1.404       .  A
C634        H645   1.082       .  S
C635        C644   1.363       .  A
C635        C636   1.379       .  A
C636        C637   1.403       .  A
C636        O642   1.319       .  A
C637        C638   1.402       .  A
C637        H646   1.082       .  S
C638        C641   1.362       .  A
O639        C640   1.332       .  A
C640        C641   1.391       .  A
C641        H647   1.082       .  S
O642        C643   1.331       .  A
C643        C644   1.395       .  A
C644        H648   1.082       .  S
C649        C654   1.375       .  A
C649        C650   1.414       .  A
C649        O655   1.326       .  A
C650        C651   1.413       .  A
C650        H661   1.082       .  S
C651        C660   1.376       .  A
C651        C652   1.379       .  A
C652        C653   1.399       .  A
C652        O658   1.314       .  A
C653        C654   1.398       .  A
C653        H662   1.082       .  S
C654        C657   1.356       .  A
O655        C656   1.339       .  A
C656        C657   1.397       .  A
C657        H663   1.081       .  S
O658        C659   1.329       .  A
C659        C660   1.397       .  A
C660        H664   1.082       .  S
C665        C670   1.379       .  A
C665        C666   1.413       .  A
C665        O671   1.324       .  A
C666        C667   1.410       .  A
C666        H677   1.082       .  S
C667        C676   1.376       .  A
C667        C668   1.379       .  A
C668        C669   1.399       .  A
C668        O674   1.310       .  A
C669        C670   1.396       .  A
C669        H678   1.082       .  S
C670        C673   1.359       .  A
O671        C672   1.336       .  A
C672        C673   1.387       .  A
C673        H679   1.082       .  S
O674        C675   1.330       .  A
C675        C676   1.396       .  A
C676        H680   1.082       .  S
C681        C686   1.379       .  A
C681        C682   1.406       .  A
C681        O687   1.320       .  A
C682        C683   1.405       .  A
C682        H693   1.082       .  S
C683        C692   1.366       .  A
C683        C684   1.379       .  A
C684        C685   1.407       .  A
C684        O690   1.320       .  A
C685        C686   1.405       .  A
C685        H694   1.082       .  S
C686        C689   1.366       .  A
O687        C688   1.333       .  A
C688        C689   1.394       .  A
C689        H695   1.082       .  S
O690        C691   1.333       .  A
C691        C692   1.395       .  A
C692        H696   1.082       .  S
C697        C698   1.417   1_655  A
C697       C1384   1.492       .  S
C698        C699   1.408       .  A
C698       C1336   1.486       .  S
C699        H704   1.080       .  S
C700        C701   1.415   1_455  A
C700       C1352   1.495       .  S
C701        C702   1.408       .  A
C701       C1368   1.480       .  S
C702        H703   1.085       .  S
C705        C706   1.530       .  S
C705        C711   1.531       .  S
C705        C709   1.537       .  S
C705       C1320   1.511       .  S
C706        H713   1.087       .  S
C706        C707   1.357       .  D
C707        C708   1.542       .  S
C707       C1355   1.471       .  S
C708        C712   1.550       .  S
C708        C710   1.543       .  S
C708        H714   1.111       .  S
C709        H715   1.085       .  S
C709        C710   1.374       .  D
C710       C1339   1.486       .  S
C711        H716   1.086       .  S
C711        C712   1.369       .  D
C712       C1304   1.485       .  S
C717        C718   1.521       .  S
C717        C723   1.528       .  S
C717        C721   1.545       .  S
C717       C1272   1.517       .  S
C718        H725   1.087       .  S
C718        C719   1.359       .  D
C719        C720   1.552       .  S
C719       C1371   1.486       .  S
C720        C724   1.550       .  S
C720        C722   1.546       .  S
C720        H726   1.110       .  S
C721        H727   1.084       .  S
C721        C722   1.382       .  D
C722       C1387   1.492       .  S
C723        H728   1.087       .  S
C723        C724   1.362       .  D
C724       C1288   1.483       .  S
C729        C730   1.524       .  S
C729       C1211   1.518       .  S
C730        H737   1.086       .  S
C730        C731   1.357       .  D
C731       C1243   1.484       .  S
C732        C736   1.550       .  S
C732        C734   1.547   1_545  S
C732        H738   1.108   1_545  S
C733        H739   1.086       .  S
C733        C734   1.375       .  D
C734       C1259   1.486       .  S
C735        H740   1.086       .  S
C735        C736   1.368       .  D
C736       C1227   1.482   1_545  S
C741        C742   1.419       .  A
C741        C746   1.411       .  A
C741       C1256   1.492       .  S
C742        C743   1.406       .  A
C742       C1176   1.483       .  S
C743        C744   1.406       .  A
C743        H748   1.084       .  S
C744        C745   1.407       .  A
C744       C1192   1.488       .  S
C745        C746   1.408       .  A
C745       C1240   1.477       .  S
C746        H747   1.083       .  S
C749        C750   1.527       .  S
C749       C1163   1.519       .  S
C750        H757   1.086       .  S
C750        C751   1.359       .  D
C751       C1195   1.488       .  S
C752        C756   1.546       .  S
C752        C754   1.543       .  S
C752        H758   1.110       .  S
C753        H759   1.085       .  S
C753        C754   1.375       .  D
C754       C1179   1.486       .  S
C755        H760   1.084       .  S
C755        C756   1.362       .  D
C756       C1147   1.475       .  S
O761       Ni769   1.917       .  S
O761        C771   1.279       .  A
O762       Ni769   1.922   1_554  S
O762        C772   1.281       .  A
O763       Ni769   1.933       .  S
O763        C773   1.284       .  A
O764       Ni769   1.923       .  S
O764        C774   1.283   1_556  A
O765       Ni770   1.930       .  S
O765        C774   1.282   1_556  A
O766       Ni770   1.919       .  S
O766        C773   1.281       .  A
O767       Ni770   1.921       .  S
O767        C772   1.281   1_556  A
O768       Ni770   1.923       .  S
O768        C771   1.283       .  A
Ni769      Ni770   2.389       .  S
C771       C1144   1.471       .  S
C772       C1115   1.470       .  S
C773       C1307   1.478       .  S
C774       C1128   1.481       .  S
C775        C776   1.407   1_455  A
C775       C1051   1.485       .  S
C776       C1096   1.483       .  S
C777        C778   1.420       .  A
C777        H782   1.080       .  S
C778        C779   1.423   1_655  A
C778       C1083   1.499       .  S
C779        C780   1.402       .  A
C779       C1067   1.491       .  S
C780        H781   1.083       .  S
C783        C784   1.532       .  S
C783        C789   1.525       .  S
C783        C787   1.543       .  S
C783       C1112   1.514       .  S
C784        H791   1.086       .  S
C784        C785   1.364       .  D
C785        C786   1.542       .  S
C785       C1032   1.475       .  S
C786        C790   1.545       .  S
C786        C788   1.544       .  S
C786        H792   1.107       .  S
C787        H793   1.086       .  S
C787        C788   1.374       .  D
C788       C1064   1.488       .  S
C789        H794   1.087       .  S
C789        C790   1.361       .  D
C790       C1048   1.479       .  S
C795        C796   1.536       .  S
C795        C801   1.533       .  S
C795        C799   1.540       .  S
C795       C1019   1.517       .  S
C796        H803   1.086       .  S
C796        C797   1.367       .  D
C797        C798   1.545       .  S
C797       C1000   1.482       .  S
C798        C802   1.541       .  S
C798        C800   1.539       .  S
C798        H804   1.111       .  S
C799        H805   1.086       .  S
C799        C800   1.370       .  D
C800       C1099   1.479       .  S
C801        H806   1.085       .  S
C801        C802   1.360       .  D
C802       C1080   1.470       .  S
C807        C813   1.531       .  S
C807        C955   1.514       .  S
C808        H815   1.086       .  S
C808        C809   1.364       .  D
C809        C810   1.547       .  S
C809        C939   1.481       .  S
C810        C812   1.547       .  S
C810        H816   1.108       .  S
C811        H817   1.086       .  S
C811        C812   1.372       .  D
C812        C984   1.487       .  S
C813        H818   1.087       .  S
C813        C814   1.360       .  D
C814        C971   1.473       .  S
C819        C820   1.535       .  S
C819        C825   1.531       .  S
C819       C1131   1.525       .  S
C820        H827   1.086       .  S
C821        C822   1.545       .  S
C821        C888   1.478       .  S
C822        C824   1.542       .  S
C822        H828   1.109       .  S
C823        H829   1.085       .  S
C823        C824   1.379       .  D
C824        C923   1.486       .  S
C825        H830   1.086       .  S
C825        C826   1.359       .  D
C826        C907   1.484       .  S
C831        C832   1.409       .  A
C831        C836   1.405       .  A
C831        C904   1.480       .  S
C832        C833   1.407       .  A
C832        C987   1.480       .  S
C833        C834   1.410       .  A
C833        H838   1.085       .  S
C834        C835   1.419       .  A
C834        C968   1.482       .  S
C835        C836   1.406       .  A
C835        C920   1.494       .  S
C836        H837   1.084       .  S
O839       Ni847   1.920   1_556  S
O839        C849   1.281       .  A
O840       Ni847   1.925       .  S
O840        C850   1.282       .  A
O841       Ni847   1.921   1_556  S
O841        C851   1.280       .  A
O842       Ni847   1.919       .  S
O842        C852   1.281       .  A
O843       Ni848   1.922       .  S
O843        C852   1.282       .  A
O844       Ni848   1.921   1_556  S
O844        C851   1.283       .  A
O845       Ni848   1.922       .  S
O845        C850   1.281       .  A
O846       Ni848   1.930   1_556  S
O846        C849   1.282       .  A
Ni847      Ni848   2.389       .  S
C849       C1275   1.472       .  S
C850        C952   1.471       .  S
C851       C1208   1.472       .  S
C852       C1016   1.472       .  S
O853       Ni861   1.916       .  S
O853        C863   1.280       .  A
O854       Ni861   1.911       .  S
O854        C864   1.281       .  A
O855       Ni861   1.920       .  S
O855        C865   1.281       .  A
O856       Ni861   1.921       .  S
O856        C866   1.281       .  A
O857       Ni862   1.915       .  S
O857        C866   1.281       .  A
O858       Ni862   1.922       .  S
O858        C865   1.282       .  A
O859       Ni862   1.933       .  S
O859        C864   1.282       .  A
O860       Ni862   1.926       .  S
O860        C863   1.283       .  A
Ni861      Ni862   2.389       .  S
C863       C1035   1.472       .  S
C864       C1160   1.477       .  S
C865        C891   1.472       .  S
C866       C1323   1.470       .  S
O867       Ni875   1.927       .  S
O867        C877   1.282       .  A
O868       Ni875   1.931       .  S
O868        C878   1.284       .  A
O869       Ni875   1.926       .  S
O869        C879   1.283       .  A
O870       Ni875   1.919       .  S
O870        C880   1.280       .  A
O871       Ni876   1.929       .  S
O871        C880   1.283       .  A
O872       Ni876   1.926       .  S
O872        C879   1.282       .  A
O873       Ni876   1.920       .  S
O873        C878   1.280       .  A
O874       Ni876   1.923       .  S
O874        C877   1.283       .  A
Ni875      Ni876   2.388       .  S
C877       C1224   1.478       .  S
C878       C1003   1.479       .  S
C879       C1291   1.479       .  S
C880        C936   1.475       .  S
C881        C886   1.380       .  A
C881        C882   1.403       .  A
C881        O887   1.318       .  A
C882        C883   1.402       .  A
C882        H893   1.082       .  S
C883        C892   1.362       .  A
C883        C884   1.380       .  A
C884        C885   1.406       .  A
C884        O890   1.320       .  A
C885        C886   1.405       .  A
C885        H894   1.082       .  S
C886        C889   1.365       .  A
O887        C888   1.331       .  A
C888        C889   1.392       .  A
C889        H895   1.083       .  S
O890        C891   1.332       .  A
C891        C892   1.391       .  A
C892        H896   1.082       .  S
C897        C902   1.380       .  A
C897        C898   1.413       .  A
C897        O903   1.326       .  A
C898        C899   1.412       .  A
C898        H909   1.082       .  S
C899        C908   1.375       .  A
C899        C900   1.379       .  A
C900        C901   1.396       .  A
C900        O906   1.311       .  A
C901        C902   1.395       .  A
C901        H910   1.083       .  S
C902        C905   1.354       .  A
O903        C904   1.335       .  A
C904        C905   1.387       .  A
C905        H911   1.083       .  S
O906        C907   1.329       .  A
C907        C908   1.397       .  A
C908        H912   1.082       .  S
C913        C918   1.379       .  A
C913        C914   1.406       .  A
C913        O919   1.323       .  A
C914        C915   1.407       .  A
C914        H925   1.082       .  S
C915        C924   1.362       .  A
C915        C916   1.380       .  A
C916        C917   1.404       .  A
C916        O922   1.323       .  A
C917        C918   1.405       .  A
C917        H926   1.082       .  S
C918        C921   1.359       .  A
O919        C920   1.334       .  A
C920        C921   1.395       .  A
C921        H927   1.082       .  S
O922        C923   1.332       .  A
C923        C924   1.395       .  A
C924        H928   1.082       .  S
C929        C934   1.380       .  A
C929        C930   1.407       .  A
C929        O935   1.320       .  A
C930        C931   1.405       .  A
C930        H941   1.082       .  S
C931        C940   1.367       .  A
C931        C932   1.380       .  A
C932        C933   1.405       .  A
C932        O938   1.318       .  A
C933        C934   1.403       .  A
C933        H942   1.082       .  S
C934        C937   1.365       .  A
O935        C936   1.332       .  A
C936        C937   1.392       .  A
C937        H943   1.082       .  S
O938        C939   1.332       .  A
C939        C940   1.392       .  A
C940        H944   1.082       .  S
C945        C950   1.380       .  A
C945        C946   1.404       .  A
C945        O951   1.319       .  A
C946        C947   1.403       .  A
C946        H957   1.082       .  S
C947        C956   1.361       .  A
C947        C948   1.379       .  A
C948        C949   1.407       .  A
C948        O954   1.321       .  A
C949        C950   1.406       .  A
C949        H958   1.082       .  S
C950        C953   1.366       .  A
O951        C952   1.331       .  A
C952        C953   1.392       .  A
C953        H959   1.082       .  S
O954        C955   1.334       .  A
C955        C956   1.393       .  A
C956        H960   1.082       .  S
C961        C966   1.380       .  A
C961        C962   1.408       .  A
C961        O967   1.321       .  A
C962        C963   1.406       .  A
C962        H973   1.082       .  S
C963        C972   1.369       .  A
C963        C964   1.381       .  A
C964        C965   1.402       .  A
C964        O970   1.316       .  A
C965        C966   1.400       .  A
C965        H974   1.082       .  S
C966        C969   1.360       .  A
O967        C968   1.333       .  A
C968        C969   1.391       .  A
C969        H975   1.083       .  S
O970        C971   1.330       .  A
C971        C972   1.391       .  A
C972        H976   1.082       .  S
C977        C982   1.379       .  A
C977        C978   1.405       .  A
C977        O983   1.321       .  A
C978        C979   1.405       .  A
C978        H989   1.082       .  S
C979        C988   1.363       .  A
C979        C980   1.381       .  A
C980        C981   1.405       .  A
C980        O986   1.323       .  A
C981        C982   1.405       .  A
C981        H990   1.082       .  S
C982        C985   1.363       .  A
O983        C984   1.333       .  A
C984        C985   1.394       .  A
C985        H991   1.081       .  S
O986        C987   1.331       .  A
C987        C988   1.392       .  A
C988        H992   1.082       .  S
C993        C998   1.380       .  A
C993        C994   1.405       .  A
C993        O999   1.319       .  A
C994        C995   1.403       .  A
C994       H1005   1.082       .  S
C995       C1004   1.364       .  A
C995        C996   1.380       .  A
C996        C997   1.408       .  A
C996       O1002   1.322       .  A
C997        C998   1.407       .  A
C997       H1006   1.082       .  S
C998       C1001   1.368       .  A
O999       C1000   1.332       .  A
C1000      C1001   1.393       .  A
C1001      H1007   1.082       .  S
O1002      C1003   1.334       .  A
C1003      C1004   1.392       .  A
C1004      H1008   1.082       .  S
C1009      C1014   1.380       .  A
C1009      C1010   1.402       .  A
C1009      O1015   1.318       .  A
C1010      C1011   1.402       .  A
C1010      H1021   1.082       .  S
C1011      C1020   1.358       .  A
C1011      C1012   1.378       .  A
C1012      C1013   1.406       .  A
C1012      O1018   1.322       .  A
C1013      C1014   1.406       .  A
C1013      H1022   1.082       .  S
C1014      C1017   1.364       .  A
O1015      C1016   1.330       .  A
C1016      C1017   1.393       .  A
C1017      H1023   1.082       .  S
O1018      C1019   1.334       .  A
C1019      C1020   1.396       .  A
C1020      H1024   1.081       .  S
C1025      C1030   1.381       .  A
C1025      C1026   1.405       .  A
C1025      O1031   1.321       .  A
C1026      C1027   1.404       .  A
C1026      H1037   1.082       .  S
C1027      C1036   1.363       .  A
C1027      C1028   1.380       .  A
C1028      C1029   1.403       .  A
C1028      O1034   1.319       .  A
C1029      C1030   1.403       .  A
C1029      H1038   1.082       .  S
C1030      C1033   1.360       .  A
O1031      C1032   1.331       .  A
C1032      C1033   1.392       .  A
C1033      H1039   1.083       .  S
O1034      C1035   1.331       .  A
C1035      C1036   1.392       .  A
C1036      H1040   1.082       .  S
C1041      C1046   1.379       .  A
C1041      C1042   1.397       .  A
C1041      O1047   1.310       .  A
C1042      C1043   1.395       .  A
C1042      H1053   1.083       .  S
C1043      C1052   1.354       .  A
C1043      C1044   1.379       .  A
C1044      C1045   1.410       .  A
C1044      O1050   1.322       .  A
C1045      C1046   1.409       .  A
C1045      H1054   1.082       .  S
C1046      C1049   1.372       .  A
O1047      C1048   1.329       .  A
C1048      C1049   1.395       .  A
C1049      H1055   1.082       .  S
O1050      C1051   1.335       .  A
C1051      C1052   1.391       .  A
C1052      H1056   1.082       .  S
C1057      C1062   1.379       .  A
C1057      C1058   1.405       .  A
C1057      O1063   1.322       .  A
C1058      C1059   1.406       .  A
C1058      H1069   1.082       .  S
C1059      C1068   1.360       .  A
C1059      C1060   1.379       .  A
C1060      C1061   1.404       .  A
C1060      O1066   1.323       .  A
C1061      C1062   1.406       .  A
C1061      H1070   1.082       .  S
C1062      C1065   1.361       .  A
O1063      C1064   1.333       .  A
C1064      C1065   1.395       .  A
C1065      H1071   1.081       .  S
O1066      C1067   1.332       .  A
C1067      C1068   1.396       .  A
C1068      H1072   1.083       .  S
C1073      C1078   1.380       .  A
C1073      C1074   1.402       .  A
C1073      O1079   1.318       .  A
C1074      C1075   1.401       .  A
C1074      H1085   1.082       .  S
C1075      C1084   1.358       .  A
C1075      C1076   1.376       .  A
C1076      C1077   1.406       .  A
C1076      O1082   1.321       .  A
C1077      C1078   1.406       .  A
C1077      H1086   1.082       .  S
C1078      C1081   1.364       .  A
O1079      C1080   1.330       .  A
C1080      C1081   1.392       .  A
C1081      H1087   1.083       .  S
O1082      C1083   1.334       .  A
C1083      C1084   1.398       .  A
C1084      H1088   1.081       .  S
C1089      C1094   1.380       .  A
C1089      C1090   1.408       .  A
C1089      O1095   1.322       .  A
C1090      C1091   1.407       .  A
C1090      H1101   1.082       .  S
C1091      C1100   1.366       .  A
C1091      C1092   1.380       .  A
C1092      C1093   1.402       .  A
C1092      O1098   1.318       .  A
C1093      C1094   1.401       .  A
C1093      H1102   1.082       .  S
C1094      C1097   1.360       .  A
O1095      C1096   1.334       .  A
C1096      C1097   1.390       .  A
C1097      H1103   1.082       .  S
O1098      C1099   1.330       .  A
C1099      C1100   1.394       .  A
C1100      H1104   1.082       .  S
C1105      C1110   1.379       .  A
C1105      C1106   1.404       .  A
C1105      O1111   1.319       .  A
C1106      C1107   1.403       .  A
C1106      H1117   1.082       .  S
C1107      C1116   1.363       .  A
C1107      C1108   1.380       .  A
C1108      C1109   1.405       .  A
C1108      O1114   1.320       .  A
C1109      C1110   1.404       .  A
C1109      H1118   1.082       .  S
C1110      C1113   1.362       .  A
O1111      C1112   1.333       .  A
C1112      C1113   1.395       .  A
C1113      H1119   1.082       .  S
O1114      C1115   1.331       .  A
C1115      C1116   1.390       .  A
C1116      H1120   1.082       .  S
C1121      C1126   1.379       .  A
C1121      C1122   1.413       .  A
C1121      O1127   1.326       .  A
C1122      C1123   1.412       .  A
C1122      H1133   1.082       .  S
C1123      C1132   1.375       .  A
C1123      C1124   1.378       .  A
C1124      C1125   1.401       .  A
C1124      O1130   1.314       .  A
C1125      C1126   1.399       .  A
C1125      H1134   1.082       .  S
C1126      C1129   1.360       .  A
O1127      C1128   1.336       .  A
C1128      C1129   1.390       .  A
C1129      H1135   1.083       .  S
O1130      C1131   1.332       .  A
C1131      C1132   1.399       .  A
C1137      C1142   1.380       .  A
C1137      C1138   1.409       .  A
C1137      O1143   1.322       .  A
C1138      C1139   1.407       .  A
C1138      H1149   1.082       .  S
C1139      C1148   1.370       .  A
C1139      C1140   1.380       .  A
C1140      C1141   1.400       .  A
C1140      O1146   1.314       .  A
C1141      C1142   1.398       .  A
C1141      H1150   1.082       .  S
C1142      C1145   1.359       .  A
O1143      C1144   1.334       .  A
C1144      C1145   1.388       .  A
C1145      H1151   1.083       .  S
O1146      C1147   1.329       .  A
C1147      C1148   1.393       .  A
C1148      H1152   1.082       .  S
C1153      C1158   1.379       .  A
C1153      C1154   1.415       .  A
C1153      O1159   1.328       .  A
C1154      C1155   1.414       .  A
C1154      H1165   1.082       .  S
C1155      C1164   1.376       .  A
C1155      C1156   1.379       .  A
C1156      C1157   1.395       .  A
C1156      O1162   1.310       .  A
C1157      C1158   1.393       .  A
C1157      H1166   1.083       .  S
C1158      C1161   1.352       .  A
O1159      C1160   1.337       .  A
C1160      C1161   1.387       .  A
C1161      H1167   1.083       .  S
O1162      C1163   1.329       .  A
C1163      C1164   1.400       .  A
C1169      C1174   1.380       .  A
C1169      C1170   1.403       .  A
C1169      O1175   1.317       .  A
C1170      C1171   1.402       .  A
C1170      H1181   1.082       .  S
C1171      C1180   1.362       .  A
C1171      C1172   1.379       .  A
C1172      C1173   1.408       .  A
C1172      O1178   1.321       .  A
C1173      C1174   1.407       .  A
C1173      H1182   1.082       .  S
C1174      C1177   1.367       .  A
O1175      C1176   1.331       .  A
C1176      C1177   1.395       .  A
C1177      H1183   1.082       .  S
O1178      C1179   1.334       .  A
C1179      C1180   1.393       .  A
C1180      H1184   1.082       .  S
C1185      C1190   1.378       .  A
C1185      C1186   1.415       .  A
C1185      O1191   1.324       .  A
C1186      C1187   1.412       .  A
C1186      H1197   1.082       .  S
C1187      C1196   1.379       .  A
C1187      C1188   1.378       .  A
C1188      C1189   1.396       .  A
C1188      O1194   1.307       .  A
C1189      C1190   1.393       .  A
C1189      H1198   1.083       .  S
C1190      C1193   1.356       .  A
O1191      C1192   1.338       .  A
C1192      C1193   1.388       .  A
C1193      H1199   1.082       .  S
O1194      C1195   1.329       .  A
C1195      C1196   1.398       .  A
C1196      H1200   1.082       .  S
C1201      C1206   1.380       .  A
C1201      C1202   1.410       .  A
C1201      O1207   1.322       .  A
C1202      C1203   1.408       .  A
C1203      C1204   1.378       .  A
C1204      C1205   1.400       .  A
C1204      O1210   1.311       .  A
C1205      C1206   1.397       .  A
C1205      H1214   1.082       .  S
C1206      C1209   1.359       .  A
O1207      C1208   1.334       .  A
C1208      C1209   1.389       .  A
C1209      H1215   1.083       .  S
O1210      C1211   1.331       .  A
C1212      H1216   1.082   1_545  S
C1217      C1222   1.379       .  A
C1217      C1218   1.410       .  A
C1217      O1223   1.324       .  A
C1218      C1219   1.409       .  A
C1218      H1229   1.082       .  S
C1219      C1228   1.370       .  A
C1219      C1220   1.380       .  A
C1220      C1221   1.402       .  A
C1220      O1226   1.317   1_565  A
C1221      C1222   1.401       .  A
C1221      H1230   1.082   1_565  S
C1222      C1225   1.361       .  A
O1223      C1224   1.335       .  A
C1224      C1225   1.390       .  A
C1225      H1231   1.082       .  S
O1226      C1227   1.331   1_545  A
C1227      C1228   1.395       .  A
C1228      H1232   1.083       .  S
C1233      C1238   1.380       .  A
C1233      C1234   1.414       .  A
C1233      O1239   1.322       .  A
C1234      C1235   1.411       .  A
C1234      H1245   1.082       .  S
C1235      C1244   1.379       .  A
C1235      C1236   1.379       .  A
C1236      C1237   1.396       .  A
C1236      O1242   1.306       .  A
C1237      C1238   1.392       .  A
C1237      H1246   1.083       .  S
C1238      C1241   1.357       .  A
O1239      C1240   1.336       .  A
C1240      C1241   1.385       .  A
C1241      H1247   1.083       .  S
O1242      C1243   1.329       .  A
C1243      C1244   1.396       .  A
C1244      H1248   1.082       .  S
C1249      C1254   1.379       .  A
C1249      C1250   1.404       .  A
C1249      O1255   1.321       .  A
C1250      C1251   1.404       .  A
C1250      H1261   1.082       .  S
C1251      C1260   1.361       .  A
C1251      C1252   1.379       .  A
C1252      C1253   1.406       .  A
C1252      O1258   1.322       .  A
C1253      C1254   1.406       .  A
C1253      H1262   1.082       .  S
C1254      C1257   1.363       .  A
O1255      C1256   1.333       .  A
C1256      C1257   1.396       .  A
C1257      H1263   1.082       .  S
O1258      C1259   1.333       .  A
C1259      C1260   1.394       .  A
C1260      H1264   1.081       .  S
C1265      C1270   1.379       .  A
C1265      C1266   1.412       .  A
C1265      O1271   1.330       .  A
C1266      C1267   1.413       .  A
C1266      H1277   1.082       .  S
C1267      C1276   1.372       .  A
C1267      C1268   1.381       .  A
C1268      C1269   1.397       .  A
C1268      O1274   1.317       .  A
C1269      C1270   1.398       .  A
C1269      H1278   1.082       .  S
C1270      C1273   1.351       .  A
O1271      C1272   1.336       .  A
C1272      C1273   1.391       .  A
C1273      H1279   1.083       .  S
O1274      C1275   1.327       .  A
C1275      C1276   1.396       .  A
C1276      H1280   1.082       .  S
C1281      C1286   1.379       .  A
C1281      C1282   1.405       .  A
C1281      O1287   1.319       .  A
C1282      C1283   1.404       .  A
C1282      H1293   1.082       .  S
C1283      C1292   1.365       .  A
C1283      C1284   1.379       .  A
C1284      C1285   1.408       .  A
C1284      O1290   1.323       .  A
C1285      C1286   1.407       .  A
C1285      H1294   1.082       .  S
C1286      C1289   1.369       .  A
O1287      C1288   1.333       .  A
C1288      C1289   1.393       .  A
C1289      H1295   1.082       .  S
O1290      C1291   1.333       .  A
C1291      C1292   1.393       .  A
C1292      H1296   1.082       .  S
C1297      C1302   1.380       .  A
C1297      C1298   1.406       .  A
C1297      O1303   1.324       .  A
C1298      C1299   1.407       .  A
C1298      H1309   1.082       .  S
C1299      C1308   1.364       .  A
C1299      C1300   1.380       .  A
C1300      C1301   1.405       .  A
C1300      O1306   1.322       .  A
C1301      C1302   1.405       .  A
C1301      H1310   1.082       .  S
C1302      C1305   1.361       .  A
O1303      C1304   1.332       .  A
C1304      C1305   1.394       .  A
C1305      H1311   1.082       .  S
O1306      C1307   1.332       .  A
C1307      C1308   1.394       .  A
C1308      H1312   1.082       .  S
C1313      C1318   1.379       .  A
C1313      C1314   1.399       .  A
C1313      O1319   1.313       .  A
C1314      C1315   1.398       .  A
C1314      H1325   1.082       .  S
C1315      C1324   1.358       .  A
C1315      C1316   1.380       .  A
C1316      C1317   1.408       .  A
C1316      O1322   1.321       .  A
C1317      C1318   1.406       .  A
C1317      H1326   1.082       .  S
C1318      C1321   1.368       .  A
O1319      C1320   1.330       .  A
C1320      C1321   1.395       .  A
C1321      H1327   1.082       .  S
O1322      C1323   1.333       .  A
C1323      C1324   1.389       .  A
C1324      H1328   1.083       .  S
C1329      C1334   1.379       .  A
C1329      C1330   1.403       .  A
C1329      O1335   1.318       .  A
C1330      C1331   1.402       .  A
C1330      H1341   1.082       .  S
C1331      C1340   1.362       .  A
C1331      C1332   1.379       .  A
C1332      C1333   1.409       .  A
C1332      O1338   1.322       .  A
C1333      C1334   1.408       .  A
C1333      H1342   1.082       .  S
C1334      C1337   1.368       .  A
O1335      C1336   1.331       .  A
C1336      C1337   1.395       .  A
C1337      H1343   1.082       .  S
O1338      C1339   1.334       .  A
C1339      C1340   1.393       .  A
C1340      H1344   1.082       .  S
C1345      C1350   1.377       .  A
C1345      C1346   1.407       .  A
C1345      O1351   1.321       .  A
C1346      C1347   1.407       .  A
C1346      H1357   1.082       .  S
C1347      C1356   1.367       .  A
C1347      C1348   1.380       .  A
C1348      C1349   1.402       .  A
C1348      O1354   1.316       .  A
C1349      C1350   1.400       .  A
C1349      H1358   1.082       .  S
C1350      C1353   1.359       .  A
O1351      C1352   1.334       .  A
C1352      C1353   1.395       .  A
C1353      H1359   1.082       .  S
O1354      C1355   1.330       .  A
C1355      C1356   1.392       .  A
C1356      H1360   1.083       .  S
C1361      C1366   1.379       .  A
C1361      C1362   1.412       .  A
C1361      O1367   1.322       .  A
C1362      C1363   1.410       .  A
C1362      H1373   1.082       .  S
C1363      C1372   1.377       .  A
C1363      C1364   1.379       .  A
C1364      C1365   1.399       .  A
C1364      O1370   1.309       .  A
C1365      C1366   1.395       .  A
C1365      H1374   1.082       .  S
C1366      C1369   1.359       .  A
O1367      C1368   1.335       .  A
C1368      C1369   1.387       .  A
C1369      H1375   1.083       .  S
O1370      C1371   1.330       .  A
C1371      C1372   1.396       .  A
C1372      H1376   1.082       .  S
C1377      C1382   1.379       .  A
C1377      C1378   1.406       .  A
C1377      O1383   1.320       .  A
C1378      C1379   1.405       .  A
C1378      H1389   1.082       .  S
C1379      C1388   1.366       .  A
C1379      C1380   1.378       .  A
C1380      C1381   1.410       .  A
C1380      O1386   1.323       .  A
C1381      C1382   1.408       .  A
C1381      H1390   1.082       .  S
C1382      C1385   1.369       .  A
O1383      C1384   1.333       .  A
C1384      C1385   1.397       .  A
C1385      H1391   1.082       .  S
O1386      C1387   1.335       .  A
C1387      C1388   1.394       .  A
C1388      H1392   1.082       .  S
