geometry optimzed in LAMMPS
_audit_creation_date              2020-12-01 
_audit_creation_method            'lammps2cif' 
_symmetry_space_group_name_H-M    'P1' 
_symmetry_Int_Tables_number       1 
_symmetry_cell_setting            triclinic 
loop_ 
_symmetry_equiv_pos_as_xyz 
  x,y,z 
_cell_length_a                    39.05308414 
_cell_length_b                    38.5377396808883 
_cell_length_c                    38.87229541721146 
_cell_angle_alpha                 89.8437207118542 
_cell_angle_beta                  90.37344089405454 
_cell_angle_gamma                 90.1938293701664 
loop_ 
_atom_site_label 
_atom_site_type_symbol 
_atom_site_fract_x 
_atom_site_fract_y 
_atom_site_fract_z 
_atom_site_charge 
C1          C  0.25498288  0.22625796  0.26733188     0.04000
C2          C  0.22604433  0.24769986  0.26394855    -0.12200
C3          C  0.22405691  0.27289011  0.23775619     0.01500
C4          C  0.25132723  0.27615499  0.21465171    -0.10700
C5          C  0.28038448  0.25497421  0.21741953     0.04000
C6          C  0.28211663  0.23017099  0.24399717    -0.10100
H7          H  0.20512534  0.24483982  0.28186936     0.09600
H8          H  0.24995714  0.29536153  0.19433654     0.07100
H9          H  0.30451090  0.21383634  0.24646255     0.06900
O10         O  0.96616213  0.53342437  0.21832379    -0.70900
O11         O  0.03043490  0.45889399  0.21587071    -0.71200
O12         O  0.96161539  0.46377414  0.21651650    -0.71000
O13         O  0.03485283  0.52861303  0.21711786    -0.71000
O14         O  0.03670335  0.52667017  0.27295905    -0.71000
O15         O  0.96188433  0.46292319  0.27240118    -0.71000
O16         O  0.03026542  0.45722121  0.27173269    -0.70900
O17         O  0.96825050  0.53228206  0.27417605    -0.71100
V18         V  0.99829563  0.49614734  0.21801519     1.35200
V19         V  0.99926972  0.49480253  0.27170063     1.35200
C20         C  0.95638109  0.54551083  0.24688759     0.78300
C21         C  0.04109416  0.44529886  0.24363966     0.78400
C22         C  0.94915468  0.45238718  0.24426063     0.78200
C23         C  0.04828908  0.53869517  0.24500353     0.78200
C24         C  0.75392763  0.77414008  0.27560196     0.04000
C25         C  0.72651325  0.77350231  0.25192831    -0.12200
C26         C  0.72464628  0.74798874  0.22629446     0.01500
C27         C  0.75078152  0.72325463  0.22398587    -0.10700
C28         C  0.77867875  0.72378879  0.24690985     0.04000
C29         C  0.77997168  0.74921415  0.27275137    -0.10100
H30         H  0.70645957  0.79274997  0.25339880     0.09600
H31         H  0.74945764  0.70361752  0.20413580     0.07100
H32         H  0.80137713  0.74962867  0.29057626     0.06900
O33         O  0.22057439  0.96780107  0.46143048    -0.70900
O34         O  0.21421093  0.03808695  0.52981550    -0.71200
O35         O  0.21704360  0.03731595  0.46061496    -0.71000
O36         O  0.21726550  0.96834678  0.53033948    -0.71000
O37         O  0.27278034  0.97085178  0.53336527    -0.71000
O38         O  0.27253817  0.04056430  0.46333509    -0.71000
O39         O  0.26976694  0.04044647  0.53226260    -0.70900
O40         O  0.27608580  0.97093337  0.46429669    -0.71100
V41         V  0.21834629  0.00295863  0.49562379     1.35200
V42         V  0.27170120  0.00565451  0.49827831     1.35200
C43         C  0.24952870  0.95747580  0.45128425     0.78300
C44         C  0.24115198  0.05122799  0.54259193     0.78400
C45         C  0.24461953  0.05061367  0.44993750     0.78200
C46         C  0.24489383  0.95766981  0.54364004     0.78200
O47         O  0.71334869  0.95754192  0.47192300    -0.70900
O48         O  0.71373913  0.02637562  0.54160326    -0.71200
O49         O  0.71059262  0.02695724  0.47233775    -0.71000
O50         O  0.71655603  0.95668094  0.54096579    -0.71000
O51         O  0.77207421  0.95836348  0.53809973    -0.71000
O52         O  0.76612186  0.03009515  0.47100367    -0.71000
O53         O  0.76931824  0.02813133  0.54014786    -0.70900
O54         O  0.76883583  0.96044331  0.46913121    -0.71100
V55         V  0.71464940  0.99195020  0.50671120     1.35200
V56         V  0.76801339  0.99425173  0.50465662     1.35200
C57         C  0.74094790  0.94745226  0.45850163     0.78300
C58         C  0.74158434  0.03885155  0.55289482     0.78400
C59         C  0.73737607  0.04038982  0.45987984     0.78200
C60         C  0.74530609  0.94526175  0.55091494     0.78200
C61         C  0.27305421  0.75941064  0.78120257     0.04000
C62         C  0.24711659  0.73408711  0.78094492    -0.12200
C63         C  0.22362326  0.73169768  0.75345493     0.01500
C64         C  0.22648363  0.75527712  0.72583176    -0.10700
C65         C  0.25225411  0.78098569  0.72563927     0.04000
C66         C  0.27539305  0.78264044  0.75341817    -0.10100
H67         H  0.24509197  0.71631588  0.80242524     0.09600
H68         H  0.20850010  0.75381782  0.70461464     0.07100
H69         H  0.29523736  0.80230137  0.75354912     0.06900
O70         O  0.96684240  0.53368867  0.71240270    -0.70900
O71         O  0.03936172  0.46775970  0.71607616    -0.71200
O72         O  0.97073398  0.46399369  0.71453408    -0.71000
O73         O  0.03570201  0.53735908  0.71352355    -0.71000
O74         O  0.03471779  0.53956377  0.76934115    -0.71000
O75         O  0.97018013  0.46513728  0.77040109    -0.71000
O76         O  0.03883090  0.47009210  0.77190082    -0.70900
O77         O  0.96567696  0.53473475  0.76824614    -0.71100
V78         V  0.00312045  0.50076777  0.71522890     1.35200
V79         V  0.00234162  0.50239382  0.76888708     1.35200
C80         C  0.95371773  0.54521323  0.73976876     0.78300
C81         C  0.05149450  0.45782107  0.74471819     0.78400
C82         C  0.95963023  0.45181906  0.74253471     0.78200
C83         C  0.04651269  0.55080855  0.74114697     0.78200
C84         C  0.78907091  0.26624690  0.75915185     0.04000
C85         C  0.78843959  0.24031017  0.73380976    -0.12200
C86         C  0.76206021  0.21542047  0.73280710     0.01500
C87         C  0.73612286  0.21673939  0.75770092    -0.10700
C88         C  0.73631143  0.24249433  0.78327353     0.04000
C89         C  0.76297266  0.26703310  0.78380405    -0.10100
H90         H  0.80859492  0.23948382  0.71485003     0.09600
H91         H  0.71582940  0.19755521  0.75729608     0.07100
H92         H  0.76347194  0.28679852  0.80352413     0.06900
O93         O  0.52798835  0.78480710  0.96983913    -0.70900
O94         O  0.46275905  0.78582186  0.04175092    -0.71200
O95         O  0.53135112  0.78739423  0.03897653    -0.71000
O96         O  0.45925683  0.78305850  0.97280617    -0.71000
O97         O  0.46066110  0.72674036  0.97495446    -0.71000
O98         O  0.53216984  0.73107804  0.04149829    -0.71000
O99         O  0.46361289  0.72947846  0.04381267    -0.70900
O100        O  0.52956220  0.72850828  0.97230965    -0.71100
V101        V  0.49538668  0.78417043  0.00586313     1.35200
V102        V  0.49652782  0.73004704  0.00804711     1.35200
C103        C  0.53991987  0.75652893  0.95882666     0.78300
C104        C  0.45205130  0.75787818  0.05498008     0.78400
C105        C  0.54369322  0.75994035  0.05184599     0.78200
C106        C  0.44752547  0.75412322  0.96281708     0.78200
O107        O  0.54131435  0.29286276  0.96539274    -0.70900
O108        O  0.46881542  0.28778655  0.03072099    -0.71200
O109        O  0.53755230  0.29001157  0.03434616    -0.71000
O110        O  0.47228307  0.29128557  0.96181862    -0.71000
O111        O  0.47274451  0.23496982  0.95974534    -0.71000
O112        O  0.53977633  0.23376436  0.03172876    -0.71000
O113        O  0.47119885  0.23150745  0.02882038    -0.70900
O114        O  0.54165252  0.23656872  0.96276943    -0.71100
V115        V  0.50500627  0.28940463  0.99797114     1.35200
V116        V  0.50631371  0.23531320  0.99575513     1.35200
C117        C  0.55389894  0.26532658  0.95313541     0.78300
C118        C  0.45805110  0.25857759  0.04115256     0.78400
C119        C  0.54984845  0.26182257  0.04541428     0.78200
C120        C  0.46097803  0.26353758  0.94871595     0.78200
C121        C  0.73761923  0.76291980  0.72702676     0.04000
C122        C  0.76362883  0.73772258  0.72757825    -0.12200
C123        C  0.76442487  0.71167717  0.75309476     0.01500
C124        C  0.73874602  0.71131236  0.77835839    -0.10700
C125        C  0.71272131  0.73643064  0.77845257     0.04000
C126        C  0.71235649  0.76192121  0.75258401    -0.10100
H127        H  0.78324840  0.73838984  0.70810199     0.09600
H128        H  0.73910203  0.69153078  0.79816821     0.07100
H129        H  0.69217754  0.78107451  0.75231915     0.06900
C130        C  0.76967831  0.27494859  0.25802847     0.04000
C131        C  0.74482235  0.27365432  0.23176610    -0.12200
C132        C  0.72056059  0.24663918  0.23051150     0.01500
C133        C  0.72143645  0.22058042  0.25589365    -0.10700
C134        C  0.74589206  0.22156612  0.28262297     0.04000
C135        C  0.76979751  0.24893263  0.28340237    -0.10100
H136        H  0.74437984  0.29366576  0.21217730     0.09600
H137        H  0.70306166  0.19952435  0.25474474     0.07100
H138        H  0.78880556  0.24989009  0.30375724     0.06900
C139        C  0.26139902  0.23454326  0.71405192     0.04000
C140        C  0.28597115  0.23394466  0.74041531    -0.12200
C141        C  0.28604893  0.25913189  0.76646865     0.01500
C142        C  0.26134630  0.28579660  0.76525805    -0.10700
C143        C  0.23666162  0.28694069  0.73857908     0.04000
C144        C  0.23696547  0.26097981  0.71330595    -0.10100
H145        H  0.30484113  0.21342686  0.74080097     0.09600
H146        H  0.26120938  0.30541203  0.78510254     0.07100
H147        H  0.21805486  0.26113521  0.69282782     0.06900
C148        C  0.27795970  0.74257696  0.23379459     0.04000
C149        C  0.27601911  0.76965817  0.25787598    -0.12200
C150        C  0.24991221  0.77012292  0.28257626     0.01500
C151        C  0.22588268  0.74296303  0.28325611    -0.10700
C152        C  0.22742129  0.71582021  0.25941008     0.04000
C153        C  0.25341712  0.71585454  0.23469396    -0.10100
H154        H  0.29472315  0.79044106  0.25733870     0.09600
H155        H  0.20574687  0.74300340  0.30228458     0.07100
H156        H  0.25453476  0.69491731  0.21621297     0.06900
C157        C  0.35340113  0.23946830  0.83720636     0.16800
C158        C  0.37714419  0.22412631  0.85981568    -0.32200
C159        C  0.39611768  0.24614417  0.88149264     0.21200
C160        C  0.39151041  0.28180710  0.88067675     0.03400
C161        C  0.36761811  0.29707591  0.85826041    -0.22000
C162        C  0.34871520  0.27509367  0.83656514     0.12600
S163        S  0.32866842  0.21745696  0.80823039    -0.05600
C164        C  0.31164428  0.25667569  0.79490492    -0.09100
C165        C  0.32472849  0.28512523  0.81255420    -0.25700
S166        S  0.41715863  0.30417506  0.90855024    -0.02900
C167        C  0.43439178  0.26514877  0.92162965    -0.16400
C168        C  0.42069718  0.23636158  0.90506034    -0.14400
H169        H  0.38085657  0.19629395  0.86027769     0.21000
H170        H  0.36409320  0.32493057  0.85759750     0.17100
H171        H  0.31777760  0.31184589  0.80756658     0.19600
H172        H  0.42831039  0.20979948  0.90995388     0.12900
C173        C  0.61484801  0.27626396  0.11858640     0.16800
C174        C  0.63683447  0.29003068  0.14375017    -0.32200
C175        C  0.65659367  0.26667478  0.16312653     0.21200
C176        C  0.65441504  0.23117100  0.15790533     0.03400
C177        C  0.63246333  0.21738834  0.13266119    -0.22000
C178        C  0.61281433  0.24076474  0.11312719     0.12600
S179        S  0.58893346  0.30029364  0.09233839    -0.05600
C180        C  0.57524789  0.26214788  0.07360936    -0.09100
C181        C  0.59010206  0.23248193  0.08729529    -0.25700
S182        S  0.68025916  0.20725791  0.18443096    -0.02900
C183        C  0.69448955  0.24554817  0.20259763    -0.16400
C184        C  0.67957114  0.27508612  0.18858686    -0.14400
H185        H  0.63852812  0.31774786  0.14798488     0.21000
H186        H  0.63079186  0.18967666  0.12841789     0.17100
H187        H  0.58461819  0.20630449  0.07878364     0.19600
H188        H  0.68492373  0.30136925  0.19685721     0.12900
C189        C  0.60473697  0.76927818  0.88595179     0.16800
C190        C  0.62669616  0.78226669  0.86056791    -0.32200
C191        C  0.64676512  0.75835383  0.84256483     0.21200
C192        C  0.64503826  0.72309547  0.84943038     0.03400
C193        C  0.62290712  0.71007092  0.87465923    -0.22000
C194        C  0.60290371  0.73397617  0.89274216     0.12600
S195        S  0.57876858  0.79403901  0.91106064    -0.05600
C196        C  0.56524526  0.75642082  0.93092753    -0.09100
C197        C  0.58022028  0.72642777  0.91849947    -0.25700
S198        S  0.67209317  0.69852684  0.82530106    -0.02900
C199        C  0.68599263  0.73615589  0.80553771    -0.16400
C200        C  0.67006362  0.76599691  0.81742766    -0.14400
H201        H  0.62826378  0.80982641  0.85525924     0.21000
H202        H  0.62155130  0.68254080  0.88015858     0.17100
H203        H  0.57492184  0.70050267  0.92792553     0.19600
H204        H  0.67569092  0.79210077  0.80874344     0.12900
C205        C  0.38591468  0.77288336  0.12570441     0.16800
C206        C  0.36278303  0.78669169  0.14936714    -0.32200
C207        C  0.34392660  0.76326583  0.16943130     0.21200
C208        C  0.34794801  0.72770850  0.16613921     0.03400
C209        C  0.37123257  0.71389215  0.14264334    -0.22000
C210        C  0.39001046  0.73730149  0.12251039     0.12600
S211        S  0.41066156  0.79690571  0.09853095    -0.05600
C212        C  0.42666551  0.75859889  0.08266823    -0.09100
C213        C  0.41344419  0.72892254  0.09786269    -0.25700
S214        S  0.32204862  0.70366649  0.19212351    -0.02900
C215        C  0.30547612  0.74192735  0.20775002    -0.16400
C216        C  0.31973274  0.77161058  0.19334934    -0.14400
H217        H  0.35942193  0.81445401  0.15182296     0.21000
H218        H  0.37432867  0.68612254  0.13993731     0.17100
H219        H  0.42042259  0.70265364  0.09107796     0.19600
H220        H  0.31225930  0.79791680  0.19938187     0.12900
C221        C  0.66474729  0.23152062  0.85030093     0.16800
C222        C  0.63928215  0.21899912  0.87226018    -0.32200
C223        C  0.62121785  0.24326420  0.89174681     0.21200
C224        C  0.62819400  0.27850381  0.88976472     0.03400
C225        C  0.65401220  0.29103797  0.86799361    -0.22000
C226        C  0.67201424  0.26668775  0.84829299     0.12600
S227        S  0.68862535  0.20623836  0.82378033    -0.05600
C228        C  0.70897717  0.24335883  0.80963149    -0.09100
C229        C  0.69746899  0.27365087  0.82509755    -0.25700
S230        S  0.60254713  0.30357094  0.91516087    -0.02900
C231        C  0.58228594  0.26605235  0.92836767    -0.16400
C232        C  0.59510407  0.23599775  0.91387609    -0.14400
H233        H  0.63349815  0.19153648  0.87378383     0.21000
H234        H  0.65956445  0.31852812  0.86620167     0.17100
H235        H  0.70668313  0.29950809  0.81923542     0.19600
H236        H  0.58560264  0.21008162  0.91906775     0.12900
C237        C  0.12572697  0.39503265  0.76291339     0.16800
C238        C  0.15171497  0.37467799  0.77767784    -0.32200
C239        C  0.17123629  0.35397289  0.75561497     0.21200
C240        C  0.16507842  0.35360259  0.72047146     0.03400
C241        C  0.13919909  0.37399441  0.70568998    -0.22000
C242        C  0.11972117  0.39468867  0.72771418     0.12600
S243        S  0.09911479  0.42172285  0.78522631    -0.05600
C244        C  0.07982684  0.43272581  0.74670426    -0.09100
C245        C  0.09342429  0.41628843  0.71823106    -0.25700
S246        S  0.19074006  0.32615228  0.69820753    -0.02900
C247        C  0.21010804  0.31451988  0.73665604    -0.16400
C248        C  0.19714857  0.33179498  0.76507300    -0.14400
H249        H  0.15638557  0.37483934  0.80516503     0.21000
H250        H  0.13433523  0.37358835  0.67823468     0.17100
H251        H  0.08456292  0.41995047  0.69201846     0.19600
H252        H  0.20533656  0.32758438  0.79140281     0.12900
C253        C  0.88118687  0.61099076  0.72413749     0.16800
C254        C  0.85746030  0.63463673  0.71042437    -0.32200
C255        C  0.83473599  0.65062523  0.73326470     0.21200
C256        C  0.83538386  0.64319150  0.76814464     0.03400
C257        C  0.85910384  0.61955626  0.78188691    -0.22000
C258        C  0.88203088  0.60380061  0.75909689     0.12600
S259        S  0.91105942  0.58903419  0.70079256    -0.05600
C260        C  0.92511426  0.57017440  0.73856400    -0.09100
C261        C  0.90723547  0.58047539  0.76754400    -0.25700
S262        S  0.80566984  0.66528280  0.79145311    -0.02900
C263        C  0.79223890  0.68525363  0.75386682    -0.16400
C264        C  0.81013846  0.67464086  0.72491200    -0.14400
H265        H  0.85685653  0.64045794  0.68316165     0.21000
H266        H  0.85977540  0.61383380  0.80916931     0.17100
H267        H  0.91236822  0.57132764  0.79342813     0.19600
H268        H  0.80532959  0.68368451  0.69895291     0.12900
C269        C  0.89658637  0.37645688  0.72871455     0.16800
C270        C  0.87475445  0.35086216  0.71528615    -0.32200
C271        C  0.85555029  0.33114420  0.73864182     0.21200
C272        C  0.85809397  0.33651965  0.77381556     0.03400
C273        C  0.88021981  0.36184975  0.78727916    -0.22000
C274        C  0.89925109  0.38174738  0.76391665     0.12600
S275        S  0.92114828  0.40382865  0.70461301    -0.05600
C276        C  0.93513444  0.42270855  0.74233646    -0.09100
C277        C  0.92144086  0.40822216  0.77191092    -0.25700
S278        S  0.83158206  0.31092567  0.79772256    -0.02900
C279        C  0.81673530  0.29269418  0.75992245    -0.16400
C280        C  0.83207493  0.30591190  0.73052143    -0.14400
H281        H  0.87245706  0.34683894  0.68779275     0.21000
H282        H  0.88209684  0.36624457  0.81474242     0.17100
H283        H  0.92720043  0.41677775  0.79783777     0.19600
H284        H  0.82563637  0.29830847  0.70446317     0.12900
C285        C  0.33872585  0.77870320  0.85336104     0.16800
C286        C  0.36308654  0.79363763  0.87547456    -0.32200
C287        C  0.38074390  0.77152196  0.89807097     0.21200
C288        C  0.37416576  0.73614379  0.89893600     0.03400
C289        C  0.34934028  0.72130062  0.87723051    -0.22000
C290        C  0.33197592  0.74338813  0.85431732     0.12600
S291        S  0.31629509  0.80076477  0.82258140    -0.05600
C292        C  0.29755410  0.76198136  0.81051430    -0.09100
C293        C  0.30822935  0.73366310  0.83001093    -0.25700
S294        S  0.39946375  0.71356827  0.92708700    -0.02900
C295        C  0.41917589  0.75220133  0.93772732    -0.16400
C296        C  0.40638438  0.78093107  0.92045486    -0.14400
H297        H  0.36862830  0.82117670  0.87452519     0.21000
H298        H  0.34435952  0.69364002  0.87761233     0.17100
H299        H  0.30002695  0.70712436  0.82591283     0.19600
H300        H  0.41579422  0.80720565  0.92361953     0.12900
C301        C  0.15393415  0.66190844  0.76913210     0.16800
C302        C  0.13108676  0.63769465  0.78327023    -0.32200
C303        C  0.11104706  0.61796573  0.76046984     0.21200
C304        C  0.11369508  0.62212280  0.72513954     0.03400
C305        C  0.13652825  0.64640486  0.71100762    -0.22000
C306        C  0.15653761  0.66619561  0.73384835     0.12600
S307        S  0.18074222  0.68787085  0.79245425    -0.05600
C308        C  0.19598856  0.70492756  0.75431345    -0.09100
C309        C  0.18047878  0.69086556  0.72515674    -0.25700
S310        S  0.08738160  0.59547629  0.70185733    -0.02900
C311        C  0.07247389  0.57865882  0.74011719    -0.16400
C312        C  0.08741340  0.59306716  0.76924586    -0.14400
H313        H  0.12910401  0.63430674  0.81084843     0.21000
H314        H  0.13867067  0.64964950  0.68342584     0.17100
H315        H  0.18681813  0.69764531  0.69891804     0.19600
H316        H  0.08143847  0.58561120  0.79541328     0.12900
C317        C  0.76223051  0.15312868  0.35356694     0.16800
C318        C  0.77642078  0.13147246  0.37884754    -0.32200
C319        C  0.75438275  0.10851089  0.39590733     0.21200
C320        C  0.71967460  0.10715522  0.38825308     0.03400
C321        C  0.70548965  0.12872333  0.36274885    -0.22000
C322        C  0.72761969  0.15169496  0.34559631     0.12600
S323        S  0.78470368  0.18304952  0.33048938    -0.05600
C324        C  0.74715715  0.19398021  0.30946356    -0.09100
C325        C  0.71880710  0.17496195  0.32023883    -0.25700
S326        S  0.69729984  0.07776654  0.41238839    -0.02900
C327        C  0.73519088  0.06715997  0.43283108    -0.16400
C328        C  0.76344881  0.08554764  0.42131035    -0.14400
H329        H  0.80347711  0.13257902  0.38505953     0.21000
H330        H  0.67840901  0.12773748  0.35664178     0.17100
H331        H  0.69296746  0.17834862  0.31059143     0.19600
H332        H  0.78927716  0.08238587  0.43111787     0.12900
C333        C  0.72074527  0.83430190  0.65908985     0.16800
C334        C  0.70629542  0.85941639  0.63737491    -0.32200
C335        C  0.72840520  0.87816419  0.61596239     0.21200
C336        C  0.76340282  0.87220542  0.61607537     0.03400
C337        C  0.77785645  0.84688474  0.63771698    -0.22000
C338        C  0.75567488  0.82811618  0.65921148     0.12600
S339        S  0.69823030  0.80944110  0.68736164    -0.05600
C340        C  0.73622074  0.79013958  0.69979700    -0.09100
C341        C  0.76473404  0.80276722  0.68241871    -0.25700
S342        S  0.78579762  0.89822044  0.58845527    -0.02900
C343        C  0.74754781  0.91724718  0.57668432    -0.16400
C344        C  0.71915221  0.90385479  0.59336040    -0.14400
H345        H  0.67900038  0.86429403  0.63733695     0.21000
H346        H  0.80517724  0.84217027  0.63793989     0.17100
H347        H  0.79083450  0.79447503  0.68692347     0.19600
H348        H  0.69310470  0.91260045  0.58931030     0.12900
C349        C  0.72879460  0.10660730  0.62397011     0.16800
C350        C  0.71592937  0.12978219  0.64842404    -0.36600
C351        C  0.73966320  0.14918367  0.66772122     0.21200
C352        C  0.77460126  0.14569513  0.66288189     0.03400
C353        C  0.78747520  0.12243720  0.63854138    -0.22000
C354        C  0.76376715  0.10306687  0.61923254     0.12600
S355        S  0.70429764  0.08089190  0.59780833    -0.05600
C356        C  0.74158446  0.06518561  0.58029225    -0.09100
C357        C  0.77127610  0.07932706  0.59420238    -0.25700
S358        S  0.79910812  0.17202363  0.68833127    -0.02900
C359        C  0.76190525  0.18805526  0.70593269    -0.16400
C360        C  0.73220244  0.17331031  0.69242432    -0.14400
H361        H  0.68864040  0.13266053  0.65214939     0.21000
H362        H  0.81475986  0.11970057  0.63469233     0.17100
H363        H  0.79697735  0.07260595  0.58641398     0.19600
H364        H  0.70643888  0.18031883  0.69971054     0.12900
C365        C  0.27052235  0.88748343  0.38494934     0.16800
C366        C  0.28621823  0.86361140  0.36300506    -0.32200
C367        C  0.26485312  0.84163148  0.34371299     0.21200
C368        C  0.22949941  0.84334984  0.34619057     0.03400
C369        C  0.21382415  0.86734725  0.36792935    -0.22000
C370        C  0.23513906  0.88927211  0.38722562     0.12600
S371        S  0.29182410  0.91593575  0.41099924    -0.05600
C372        C  0.25260968  0.93032185  0.42508813    -0.09100
C373        C  0.22468681  0.91388682  0.41016990    -0.25700
S374        S  0.20805239  0.81397299  0.32141180    -0.02900
C375        C  0.24711256  0.79909349  0.30730866    -0.16400
C376        C  0.27514572  0.81640141  0.32129231    -0.14400
H377        H  0.31383388  0.86207365  0.36123265     0.21000
H378        H  0.18621515  0.86866690  0.36993455     0.17100
H379        H  0.19819041  0.91943291  0.41601698     0.19600
H380        H  0.30164223  0.81041655  0.31591123     0.12900
C381        C  0.22698589  0.12222198  0.61005559     0.16800
C382        C  0.21428263  0.14662595  0.63337598    -0.32200
C383        C  0.23819277  0.16741779  0.65098231     0.21200
C384        C  0.27311125  0.16399854  0.64575208     0.03400
C385        C  0.28574800  0.13978629  0.62241363    -0.22000
C386        C  0.26192783  0.11910591  0.60483125     0.12600
S387        S  0.20253378  0.09438567  0.58591161    -0.05600
C388        C  0.23994214  0.07864062  0.56871542    -0.09100
C389        C  0.26946319  0.09420417  0.58125070    -0.25700
S390        S  0.29801916  0.19094276  0.67006935    -0.02900
C391        C  0.26100478  0.20726241  0.68748693    -0.16400
C392        C  0.23106885  0.19241206  0.67479944    -0.14400
H393        H  0.18704228  0.14926307  0.63764803     0.21000
H394        H  0.31299977  0.13707510  0.61822555     0.17100
H395        H  0.29521624  0.08772755  0.57337818     0.19600
H396        H  0.20549967  0.19907741  0.68306876     0.12900
C397        C  0.22874718  0.88577239  0.61022670     0.16800
C398        C  0.21435696  0.86051907  0.63178168    -0.32200
C399        C  0.23629456  0.84292884  0.65449297     0.21200
C400        C  0.27105694  0.85014825  0.65573922     0.03400
C401        C  0.28555379  0.87533045  0.63400358    -0.22000
C402        C  0.26356002  0.89296640  0.61123213     0.12600
S403        S  0.20618728  0.91014478  0.58135299    -0.05600
C404        C  0.24398486  0.93032796  0.57024008    -0.09100
C405        C  0.27252744  0.91853530  0.58820400    -0.25700
S406        S  0.29297720  0.82658932  0.68587826    -0.02900
C407        C  0.25484942  0.80666134  0.69704799    -0.16400
C408        C  0.22687844  0.81802103  0.67789611    -0.14400
H409        H  0.18715663  0.85498458  0.63104193     0.21000
H410        H  0.31269839  0.88109998  0.63498914     0.17100
H411        H  0.29833542  0.92822639  0.58471929     0.19600
H412        H  0.20074944  0.80936370  0.68150482     0.12900
C413        C  0.61316042  0.77667370  0.12029267     0.16800
C414        C  0.63757120  0.79086127  0.14287414    -0.32200
C415        C  0.65613536  0.76784575  0.16383551     0.21200
C416        C  0.65057929  0.73231565  0.16246674     0.03400
C417        C  0.62589732  0.71817548  0.14021465    -0.22000
C418        C  0.60750862  0.74115048  0.11910959     0.12600
S419        S  0.58854570  0.80003973  0.09213973    -0.05600
C420        C  0.57054601  0.76151022  0.07856136    -0.09100
C421        C  0.58306265  0.73229714  0.09524518    -0.25700
S422        S  0.67678456  0.70864591  0.18874208    -0.02900
C423        C  0.69551198  0.74702077  0.20182589    -0.16400
C424        C  0.68167369  0.77648297  0.18664625    -0.14400
H425        H  0.64220322  0.81856547  0.14374640     0.21000
H426        H  0.62160050  0.69042896  0.13900449     0.17100
H427        H  0.57472947  0.70596111  0.09016564     0.19600
H428        H  0.69055359  0.80272219  0.19125720     0.12900
C429        C  0.77016458  0.84154873  0.34728942     0.16800
C430        C  0.78406325  0.86410716  0.37199281    -0.32200
C431        C  0.76115318  0.88367064  0.39164599     0.21200
C432        C  0.72601494  0.88081478  0.38697021     0.03400
C433        C  0.71217909  0.85838351  0.36222723    -0.22000
C434        C  0.73505737  0.83893016  0.34254383     0.12600
S435        S  0.79341071  0.81525527  0.32107155    -0.05600
C436        C  0.75537758  0.80063453  0.30326238    -0.09100
C437        C  0.72642609  0.81563435  0.31740994    -0.25700
S438        S  0.70245575  0.90642666  0.41347322    -0.02900
C439        C  0.74031204  0.92135858  0.43100221    -0.16400
C440        C  0.76955046  0.90703096  0.41689584    -0.14400
H441        H  0.81148586  0.86625879  0.37577369     0.21000
H442        H  0.68475150  0.85614984  0.35851043     0.17100
H443        H  0.70028870  0.80943953  0.31023597     0.19600
H444        H  0.79549784  0.91331828  0.42472879     0.12900
C445        C  0.11933312  0.60597817  0.23019023     0.16800
C446        C  0.14256187  0.62996081  0.21639153    -0.32200
C447        C  0.16324899  0.64861279  0.23946343     0.21200
C448        C  0.16093741  0.64364583  0.27471812     0.03400
C449        C  0.13796189  0.61936269  0.28851128    -0.22000
C450        C  0.11718529  0.60075067  0.26543030     0.12600
S451        S  0.09134800  0.58160807  0.20653245    -0.05600
C452        C  0.07649821  0.56412036  0.24447948    -0.09100
C453        C  0.09266620  0.57663545  0.27381588    -0.25700
S454        S  0.18728625  0.66985800  0.29840063    -0.02900
C455        C  0.20176631  0.68757006  0.26037306    -0.16400
C456        C  0.18682963  0.67357386  0.23105002    -0.14400
H457        H  0.14415969  0.63418341  0.18889381     0.21000
H458        H  0.13603565  0.61549439  0.31603274     0.17100
H459        H  0.08654871  0.56882040  0.29984693     0.19600
H460        H  0.19232184  0.68183402  0.20500562     0.12900
C461        C  0.83803228  0.34594138  0.27355085     0.16800
C462        C  0.86225369  0.36901169  0.28740725    -0.32200
C463        C  0.88133771  0.38925124  0.26436687     0.21200
C464        C  0.87641213  0.38677033  0.22909253     0.03400
C465        C  0.85199616  0.36388659  0.21525590    -0.22000
C466        C  0.83301058  0.34354284  0.23831154     0.12600
S467        S  0.81320984  0.31830750  0.29709059    -0.05600
C468        C  0.79565734  0.30320256  0.25906149    -0.09100
C469        C  0.80868182  0.31922447  0.22983528    -0.25700
S470        S  0.90273322  0.41288987  0.20546014    -0.02900
C471        C  0.92067695  0.42724683  0.24350138    -0.16400
C472        C  0.90664377  0.41254185  0.27281109    -0.14400
H473        H  0.86634521  0.37079208  0.31492654     0.21000
H474        H  0.84823440  0.36174955  0.18771487     0.17100
H475        H  0.80144114  0.31285118  0.20366830     0.19600
H476        H  0.91483099  0.41823297  0.29886799     0.12900
C477        C  0.89149846  0.61708599  0.26662040     0.16800
C478        C  0.86914553  0.64045112  0.28235160    -0.32200
C479        C  0.84771219  0.66019864  0.26096786     0.21200
C480        C  0.84850882  0.65689837  0.22548069     0.03400
C481        C  0.87113087  0.63373828  0.20969592    -0.22000
C482        C  0.89252232  0.61386071  0.23110958     0.12600
S483        S  0.91858007  0.59003750  0.28822568    -0.05600
C484        C  0.93146402  0.57399129  0.24906520    -0.09100
C485        C  0.91558716  0.58919930  0.22081720    -0.25700
S486        S  0.81965614  0.68242546  0.20420612    -0.02900
C487        C  0.80642959  0.69790993  0.24356366    -0.16400
C488        C  0.82380272  0.68377615  0.27149553    -0.14400
H489        H  0.86821876  0.64283381  0.31008208     0.21000
H490        H  0.87170722  0.63100744  0.18199044     0.17100
H491        H  0.92021877  0.58218745  0.19430003     0.19600
H492        H  0.81873315  0.68984139  0.29815959     0.12900
C493        C  0.34784656  0.27755363  0.14885662     0.16800
C494        C  0.36835585  0.29361682  0.12394416    -0.32200
C495        C  0.39085171  0.27259416  0.10537827     0.21200
C496        C  0.39268241  0.23712790  0.11126573     0.03400
C497        C  0.37233519  0.22111811  0.13632612    -0.22000
C498        C  0.34997455  0.24217560  0.15500936     0.12600
S499        S  0.31823599  0.29832465  0.17327623    -0.05600
C500        C  0.30844260  0.25891761  0.19213917    -0.09100
C501        C  0.32767886  0.23135877  0.18000216    -0.25700
S502        S  0.42132994  0.21606852  0.08594946    -0.02900
C503        C  0.43135477  0.25550405  0.06750466    -0.16400
C504        C  0.41308619  0.28335503  0.08028425    -0.14400
H505        H  0.36673290  0.32125771  0.11914435     0.21000
H506        H  0.37378936  0.19343878  0.14096893     0.17100
H507        H  0.32471310  0.20462521  0.18812304     0.19600
H508        H  0.41603254  0.30998689  0.07181627     0.12900
C509        C  0.22915328  0.11569130  0.37644927     0.16800
C510        C  0.21526588  0.13633470  0.35013602    -0.32200
C511        C  0.23740032  0.15908512  0.33285580     0.21200
C512        C  0.27189849  0.16111596  0.34122904     0.03400
C513        C  0.28581667  0.14046693  0.36762444    -0.22000
C514        C  0.26363586  0.11772176  0.38499222     0.12600
S515        S  0.20644216  0.08660620  0.40043582    -0.05600
C516        C  0.24375819  0.07687625  0.42227823    -0.09100
C517        C  0.27221374  0.09541586  0.41129726    -0.25700
S518        S  0.29441972  0.19015594  0.31683122    -0.02900
C519        C  0.25685999  0.19994593  0.29526435    -0.16400
C520        C  0.22861260  0.18130341  0.30666737    -0.14400
H521        H  0.18834435  0.13475788  0.34344376     0.21000
H522        H  0.31274108  0.14202252  0.37428939     0.17100
H523        H  0.29774469  0.09274342  0.42198965     0.19600
H524        H  0.20299455  0.18357425  0.29609533     0.12900
C525        C  0.15048448  0.33678503  0.21752421     0.16800
C526        C  0.12785336  0.36083827  0.20259488    -0.32200
C527        C  0.10535598  0.37836838  0.22453449     0.21200
C528        C  0.10523150  0.37184875  0.25964548     0.03400
C529        C  0.12747774  0.34751720  0.27442894    -0.22000
C530        C  0.15016903  0.33033231  0.25260511     0.12600
S531        S  0.18121986  0.31446050  0.19588573    -0.05600
C532        C  0.19400396  0.29628871  0.23460116    -0.09100
C533        C  0.17482305  0.30707394  0.26252254    -0.25700
S534        S  0.07738358  0.39670925  0.28225830    -0.02900
C535        C  0.06573845  0.41644736  0.24414343    -0.16400
C536        C  0.08248820  0.40389615  0.21537918    -0.14400
H537        H  0.12832934  0.36623930  0.17525296     0.21000
H538        H  0.12763597  0.34277851  0.30190164     0.17100
H539        H  0.17943105  0.29941954  0.28895888     0.19600
H540        H  0.07879831  0.41351425  0.18942532     0.12900
loop_ 
_geom_bond_atom_site_label_1 
_geom_bond_atom_site_label_2 
_geom_bond_distance 
_geom_bond_site_symmetry_2 
_ccdc_geom_bond_type 
C1            C2   1.408       .  A
C1            C6   1.407       .  A
C1          C519   1.485       .  S
C2            C3   1.407       .  A
C2            H7   1.082       .  S
C3            C4   1.403       .  A
C3          C532   1.487       .  S
C4            C5   1.403       .  A
C4            H8   1.082       .  S
C5            C6   1.407       .  A
C5          C500   1.484       .  S
C6            H9   1.083       .  S
O10          V18   1.911       .  S
O10          C20   1.267       .  A
O11          V18   1.912   1_455  S
O11          C21   1.267       .  A
O12          V18   1.897       .  S
O12          C22   1.263       .  A
O13          V18   1.896   1_455  S
O13          C23   1.263       .  A
O14          V19   1.907   1_455  S
O14          C23   1.266       .  A
O15          V19   1.905       .  S
O15          C22   1.266       .  A
O16          V19   1.891   1_455  S
O16          C21   1.262       .  A
O17          V19   1.891       .  S
O17          C20   1.262       .  A
V18          V19   2.087       .  T
C20         C484   1.472       .  S
C21         C535   1.473       .  S
C22         C471   1.473       .  S
C23         C452   1.472       .  S
C24          C25   1.407       .  A
C24          C29   1.406       .  A
C24         C436   1.485       .  S
C25          C26   1.403       .  A
C25          H30   1.082       .  S
C26          C27   1.402       .  A
C26         C423   1.479       .  S
C27          C28   1.403       .  A
C27          H31   1.083       .  S
C28          C29   1.406       .  A
C28         C487   1.482       .  S
C29          H32   1.082       .  S
O33          V41   1.903   1_565  S
O33          C43   1.266       .  A
O34          V41   1.908       .  S
O34          C44   1.265       .  A
O35          V41   1.897       .  S
O35          C45   1.263       .  A
O36          V41   1.895   1_565  S
O36          C46   1.263       .  A
O37          V42   1.911   1_565  S
O37          C46   1.267       .  A
O38          V42   1.910       .  S
O38          C45   1.267       .  A
O39          V42   1.887       .  S
O39          C44   1.262       .  A
O40          V42   1.892   1_565  S
O40          C43   1.262       .  A
V41          V42   2.088       .  T
C43         C372   1.468       .  S
C44         C388   1.468       .  S
C45         C516   1.475       .  S
C46         C404   1.475       .  S
O47          V55   1.897       .  S
O47          C57   1.263       .  A
O48          V55   1.900   1_545  S
O48          C58   1.264       .  A
O49          V55   1.902   1_545  S
O49          C59   1.264       .  A
O50          V55   1.901       .  S
O50          C60   1.265       .  A
O51          V56   1.902       .  S
O51          C60   1.264       .  A
O52          V56   1.901   1_545  S
O52          C59   1.265       .  A
O53          V56   1.902   1_545  S
O53          C58   1.265       .  A
O54          V56   1.902       .  S
O54          C57   1.265       .  A
V55          V56   2.088       .  T
C57         C439   1.470       .  S
C58         C356   1.473       .  S
C59         C327   1.473       .  S
C60         C343   1.473       .  S
C61          C62   1.404       .  A
C61          C66   1.404       .  A
C61         C292   1.486       .  S
C62          C63   1.407       .  A
C62          H67   1.082       .  S
C63          C64   1.410       .  A
C63         C308   1.491       .  S
C64          C65   1.410       .  A
C64          H68   1.081       .  S
C65          C66   1.405       .  A
C65         C407   1.490       .  S
C66          H69   1.082       .  S
O70          V78   1.907   1_655  S
O70          C80   1.266       .  A
O71          V78   1.906       .  S
O71          C81   1.266       .  A
O72          V78   1.896   1_655  S
O72          C82   1.263       .  A
O73          V78   1.897       .  S
O73          C83   1.263       .  A
O74          V79   1.907       .  S
O74          C83   1.266       .  A
O75          V79   1.905   1_655  S
O75          C82   1.266       .  A
O76          V79   1.898       .  S
O76          C81   1.263       .  A
O77          V79   1.901   1_655  S
O77          C80   1.264       .  A
V78          V79   2.087       .  T
C80         C260   1.477       .  S
C81         C244   1.474       .  S
C82         C276   1.472       .  S
C83         C311   1.475       .  S
C84          C85   1.405       .  A
C84          C89   1.404       .  A
C84         C279   1.483       .  S
C85          C86   1.406       .  A
C85          H90   1.082       .  S
C86          C87   1.407       .  A
C86         C359   1.486       .  S
C87          C88   1.407       .  A
C87          H91   1.082       .  S
C88          C89   1.404       .  A
C88         C228   1.485       .  S
C89          H92   1.082       .  S
O93         V101   1.899   1_556  S
O93         C103   1.264       .  A
O94         V101   1.897       .  S
O94         C104   1.263       .  A
O95         V101   1.903       .  S
O95         C105   1.265       .  A
O96         V101   1.903   1_556  S
O96         C106   1.265       .  A
O97         V102   1.900   1_556  S
O97         C106   1.264       .  A
O98         V102   1.899       .  S
O98         C105   1.264       .  A
O99         V102   1.900       .  S
O99         C104   1.264       .  A
O100        V102   1.903   1_556  S
O100        C103   1.265       .  A
V101        V102   2.088       .  T
C103        C196   1.473       .  S
C104        C212   1.468       .  S
C105        C420   1.472       .  S
C106        C295   1.472       .  S
O107        V115   1.911       .  S
O107        C117   1.266       .  A
O108        V115   1.909   1_554  S
O108        C118   1.267       .  A
O109        V115   1.895   1_554  S
O109        C119   1.263       .  A
O110        V115   1.895       .  S
O110        C120   1.263       .  A
O111        V116   1.912       .  S
O111        C120   1.267       .  A
O112        V116   1.909   1_554  S
O112        C119   1.267       .  A
O113        V116   1.891   1_554  S
O113        C118   1.261       .  A
O114        V116   1.890       .  S
O114        C117   1.262       .  A
V115        V116   2.087       .  T
C117        C231   1.473       .  S
C118        C503   1.471       .  S
C119        C180   1.473       .  S
C120        C167   1.475       .  S
C121        C122   1.408       .  A
C121        C126   1.405       .  A
C121        C340   1.489       .  S
C122        C123   1.409       .  A
C122        H127   1.081       .  S
C123        C124   1.408       .  A
C123        C263   1.492       .  S
C124        C125   1.406       .  A
C124        H128   1.082       .  S
C125        C126   1.404       .  A
C125        C199   1.487       .  S
C126        H129   1.082       .  S
C130        C131   1.405       .  A
C130        C135   1.405       .  A
C130        C468   1.486       .  S
C131        C132   1.406       .  A
C131        H136   1.082       .  S
C132        C133   1.406       .  A
C132        C183   1.484       .  S
C133        C134   1.407       .  A
C133        H137   1.082       .  S
C134        C135   1.406       .  A
C134        C324   1.488       .  S
C135        H138   1.082       .  S
C139        C140   1.400       .  A
C139        C144   1.398       .  A
C139        C391   1.476       .  S
C140        C141   1.405       .  A
C140        H145   1.083       .  S
C141        C142   1.412       .  A
C141        C164   1.489       .  S
C142        C143   1.412       .  A
C142        H146   1.082       .  S
C143        C144   1.404       .  A
C143        C247   1.489       .  S
C144        H147   1.082       .  S
C148        C149   1.406       .  A
C148        C153   1.405       .  A
C148        C215   1.482       .  S
C149        C150   1.405       .  A
C149        H154   1.082       .  S
C150        C151   1.404       .  A
C150        C375   1.480       .  S
C151        C152   1.401       .  A
C151        H155   1.083       .  S
C152        C153   1.402       .  A
C152        C455   1.478       .  S
C153        H156   1.083       .  S
C157        C162   1.386       .  A
C157        C158   1.404       .  A
C157        S163   1.705       .  A
C158        C159   1.404       .  A
C158        H169   1.083       .  S
C159        C168   1.375       .  A
C159        C160   1.387       .  A
C160        C161   1.402       .  A
C160        S166   1.705       .  A
C161        C162   1.402       .  A
C161        H170   1.083       .  S
C162        C165   1.374       .  A
S163        C164   1.730       .  A
C164        C165   1.389       .  A
C165        H171   1.082       .  S
S166        C167   1.724       .  A
C167        C168   1.388       .  A
C168        H172   1.083       .  S
C173        C178   1.387       .  A
C173        C174   1.402       .  A
C173        S179   1.706       .  A
C174        C175   1.402       .  A
C174        H185   1.083       .  S
C175        C184   1.370       .  A
C175        C176   1.386       .  A
C176        C177   1.403       .  A
C176        S182   1.708       .  A
C177        C178   1.404       .  A
C177        H186   1.083       .  S
C178        C181   1.373       .  A
S179        C180   1.724       .  A
C180        C181   1.387       .  A
C181        H187   1.083       .  S
S182        C183   1.726       .  A
C183        C184   1.389       .  A
C184        H188   1.083       .  S
C189        C194   1.387       .  A
C189        C190   1.402       .  A
C189        S195   1.708       .  A
C190        C191   1.403       .  A
C190        H201   1.083       .  S
C191        C200   1.370       .  A
C191        C192   1.386       .  A
C192        C193   1.402       .  A
C192        S198   1.708       .  A
C193        C194   1.403       .  A
C193        H202   1.083       .  S
C194        C197   1.371       .  A
S195        C196   1.724       .  A
C196        C197   1.387       .  A
C197        H203   1.083       .  S
S198        C199   1.727       .  A
C199        C200   1.391       .  A
C200        H204   1.083       .  S
C205        C210   1.387       .  A
C205        C206   1.401       .  A
C205        S211   1.706       .  A
C206        C207   1.402       .  A
C206        H217   1.083       .  S
C207        C216   1.370       .  A
C207        C208   1.386       .  A
C208        C209   1.400       .  A
C208        S214   1.704       .  A
C209        C210   1.401       .  A
C209        H218   1.083       .  S
C210        C213   1.369       .  A
S211        C212   1.722       .  A
C212        C213   1.386       .  A
C213        H219   1.083       .  S
S214        C215   1.726       .  A
C215        C216   1.389       .  A
C216        H220   1.083       .  S
C221        C226   1.386       .  A
C221        C222   1.399       .  A
C221        S227   1.705       .  A
C222        C223   1.400       .  A
C222        H233   1.083       .  S
C223        C232   1.366       .  A
C223        C224   1.386       .  A
C224        C225   1.404       .  A
C224        S230   1.713       .  A
C225        C226   1.406       .  A
C225        H234   1.083       .  S
C226        C229   1.372       .  A
S227        C228   1.725       .  A
C228        C229   1.392       .  A
C229        H235   1.082       .  S
S230        C231   1.724       .  A
C231        C232   1.386       .  A
C232        H236   1.083       .  S
C237        C242   1.387       .  A
C237        C238   1.404       .  A
C237        S243   1.707       .  A
C238        C239   1.403       .  A
C238        H249   1.083       .  S
C239        C248   1.374       .  A
C239        C240   1.386       .  A
C240        C241   1.402       .  A
C240        S246   1.702       .  A
C241        C242   1.401       .  A
C241        H250   1.083       .  S
C242        C245   1.372       .  A
S243        C244   1.724       .  A
C244        C245   1.386       .  A
C245        H251   1.083       .  S
S246        C247   1.729       .  A
C247        C248   1.390       .  A
C248        H252   1.082       .  S
C253        C258   1.386       .  A
C253        C254   1.403       .  A
C253        S259   1.710       .  A
C254        C255   1.404       .  A
C254        H265   1.083       .  S
C255        C264   1.373       .  A
C255        C256   1.385       .  A
C256        C257   1.403       .  A
C256        S262   1.708       .  A
C257        C258   1.404       .  A
C257        H266   1.083       .  S
C258        C261   1.373       .  A
S259        C260   1.724       .  A
C260        C261   1.389       .  A
C261        H267   1.083       .  S
S262        C263   1.729       .  A
C263        C264   1.392       .  A
C264        H268   1.082       .  S
C269        C274   1.387       .  A
C269        C270   1.401       .  A
C269        S275   1.706       .  A
C270        C271   1.402       .  A
C270        H281   1.083       .  S
C271        C280   1.370       .  A
C271        C272   1.386       .  A
C272        C273   1.402       .  A
C272        S278   1.706       .  A
C273        C274   1.402       .  A
C273        H282   1.083       .  S
C274        C277   1.371       .  A
S275        C276   1.724       .  A
C276        C277   1.386       .  A
C277        H283   1.083       .  S
S278        C279   1.726       .  A
C279        C280   1.389       .  A
C280        H284   1.083       .  S
C285        C290   1.386       .  A
C285        C286   1.401       .  A
C285        S291   1.705       .  A
C286        C287   1.402       .  A
C286        H297   1.083       .  S
C287        C296   1.371       .  A
C287        C288   1.387       .  A
C288        C289   1.403       .  A
C288        S294   1.708       .  A
C289        C290   1.403       .  A
C289        H298   1.083       .  S
C290        C293   1.372       .  A
S291        C292   1.727       .  A
C292        C293   1.391       .  A
C293        H299   1.083       .  S
S294        C295   1.724       .  A
C295        C296   1.386       .  A
C296        H300   1.083       .  S
C301        C306   1.385       .  A
C301        C302   1.402       .  A
C301        S307   1.704       .  A
C302        C303   1.402       .  A
C302        H313   1.083       .  S
C303        C312   1.373       .  A
C303        C304   1.387       .  A
C304        C305   1.404       .  A
C304        S310   1.707       .  A
C305        C306   1.404       .  A
C305        H314   1.083       .  S
C306        C309   1.374       .  A
S307        C308   1.729       .  A
C308        C309   1.392       .  A
C309        H315   1.082       .  S
S310        C311   1.725       .  A
C311        C312   1.387       .  A
C312        H316   1.083       .  S
C317        C322   1.386       .  A
C317        C318   1.400       .  A
C317        S323   1.704       .  A
C318        C319   1.401       .  A
C318        H329   1.083       .  S
C319        C328   1.370       .  A
C319        C320   1.387       .  A
C320        C321   1.404       .  A
C320        S326   1.710       .  A
C321        C322   1.405       .  A
C321        H330   1.083       .  S
C322        C325   1.374       .  A
S323        C324   1.727       .  A
C324        C325   1.392       .  A
C325        H331   1.082       .  S
S326        C327   1.725       .  A
C327        C328   1.386       .  A
C328        H332   1.083       .  S
C333        C338   1.386       .  A
C333        C334   1.400       .  A
C333        S339   1.703       .  A
C334        C335   1.401       .  A
C334        H345   1.083       .  S
C335        C344   1.370       .  A
C335        C336   1.387       .  A
C336        C337   1.404       .  A
C336        S342   1.710       .  A
C337        C338   1.405       .  A
C337        H346   1.083       .  S
C338        C341   1.374       .  A
S339        C340   1.728       .  A
C340        C341   1.392       .  A
C341        H347   1.082       .  S
S342        C343   1.725       .  A
C343        C344   1.386       .  A
C344        H348   1.083       .  S
C349        C354   1.387       .  A
C349        C350   1.403       .  A
C349        S355   1.708       .  A
C350        C351   1.404       .  A
C350        H361   1.083       .  S
C351        C360   1.372       .  A
C351        C352   1.386       .  A
C352        C353   1.402       .  A
C352        S358   1.706       .  A
C353        C354   1.403       .  A
C353        H362   1.083       .  S
C354        C357   1.371       .  A
S355        C356   1.724       .  A
C356        C357   1.387       .  A
C357        H363   1.083       .  S
S358        C359   1.727       .  A
C359        C360   1.390       .  A
C360        H364   1.082       .  S
C365        C370   1.387       .  A
C365        C366   1.402       .  A
C365        S371   1.705       .  A
C366        C367   1.402       .  A
C366        H377   1.083       .  S
C367        C376   1.371       .  A
C367        C368   1.386       .  A
C368        C369   1.400       .  A
C368        S374   1.703       .  A
C369        C370   1.400       .  A
C369        H378   1.083       .  S
C370        C373   1.369       .  A
S371        C372   1.724       .  A
C372        C373   1.384       .  A
C373        H379   1.083       .  S
S374        C375   1.725       .  A
C375        C376   1.389       .  A
C376        H380   1.083       .  S
C381        C386   1.387       .  A
C381        C382   1.402       .  A
C381        S387   1.712       .  A
C382        C383   1.404       .  A
C382        H393   1.083       .  S
C383        C392   1.368       .  A
C383        C384   1.387       .  A
C384        C385   1.397       .  A
C384        S390   1.704       .  A
C385        C386   1.399       .  A
C385        H394   1.083       .  S
C386        C389   1.363       .  A
S387        C388   1.723       .  A
C388        C389   1.384       .  A
C389        H395   1.083       .  S
S390        C391   1.722       .  A
C391        C392   1.388       .  A
C392        H396   1.083       .  S
C397        C402   1.387       .  A
C397        C398   1.401       .  A
C397        S403   1.704       .  A
C398        C399   1.401       .  A
C398        H409   1.083       .  S
C399        C408   1.372       .  A
C399        C400   1.385       .  A
C400        C401   1.405       .  A
C400        S406   1.708       .  A
C401        C402   1.405       .  A
C401        H410   1.083       .  S
C402        C405   1.375       .  A
S403        C404   1.723       .  A
C404        C405   1.389       .  A
C405        H411   1.083       .  S
S406        C407   1.730       .  A
C407        C408   1.389       .  A
C408        H412   1.082       .  S
C413        C418   1.387       .  A
C413        C414   1.402       .  A
C413        S419   1.709       .  A
C414        C415   1.403       .  A
C414        H425   1.083       .  S
C415        C424   1.371       .  A
C415        C416   1.387       .  A
C416        C417   1.401       .  A
C416        S422   1.706       .  A
C417        C418   1.402       .  A
C417        H426   1.083       .  S
C418        C421   1.370       .  A
S419        C420   1.723       .  A
C420        C421   1.387       .  A
C421        H427   1.083       .  S
S422        C423   1.724       .  A
C423        C424   1.388       .  A
C424        H428   1.083       .  S
C429        C434   1.386       .  A
C429        C430   1.403       .  A
C429        S435   1.707       .  A
C430        C431   1.403       .  A
C430        H441   1.083       .  S
C431        C440   1.371       .  A
C431        C432   1.387       .  A
C432        C433   1.400       .  A
C432        S438   1.705       .  A
C433        C434   1.401       .  A
C433        H442   1.083       .  S
C434        C437   1.368       .  A
S435        C436   1.728       .  A
C436        C437   1.389       .  A
C437        H443   1.082       .  S
S438        C439   1.722       .  A
C439        C440   1.387       .  A
C440        H444   1.083       .  S
C445        C450   1.387       .  A
C445        C446   1.401       .  A
C445        S451   1.705       .  A
C446        C447   1.401       .  A
C446        H457   1.083       .  S
C447        C456   1.370       .  A
C447        C448   1.387       .  A
C448        C449   1.402       .  A
C448        S454   1.707       .  A
C449        C450   1.403       .  A
C449        H458   1.083       .  S
C450        C453   1.372       .  A
S451        C452   1.723       .  A
C452        C453   1.387       .  A
C453        H459   1.083       .  S
S454        C455   1.724       .  A
C455        C456   1.387       .  A
C456        H460   1.083       .  S
C461        C466   1.386       .  A
C461        C462   1.402       .  A
C461        S467   1.706       .  A
C462        C463   1.402       .  A
C462        H473   1.083       .  S
C463        C472   1.372       .  A
C463        C464   1.387       .  A
C464        C465   1.402       .  A
C464        S470   1.707       .  A
C465        C466   1.403       .  A
C465        H474   1.083       .  S
C466        C469   1.372       .  A
S467        C468   1.727       .  A
C468        C469   1.390       .  A
C469        H475   1.083       .  S
S470        C471   1.724       .  A
C471        C472   1.386       .  A
C472        H476   1.083       .  S
C477        C482   1.387       .  A
C477        C478   1.401       .  A
C477        S483   1.703       .  A
C478        C479   1.401       .  A
C478        H489   1.083       .  S
C479        C488   1.370       .  A
C479        C480   1.386       .  A
C480        C481   1.403       .  A
C480        S486   1.707       .  A
C481        C482   1.403       .  A
C481        H490   1.083       .  S
C482        C485   1.374       .  A
S483        C484   1.723       .  A
C484        C485   1.387       .  A
C485        H491   1.083       .  S
S486        C487   1.727       .  A
C487        C488   1.388       .  A
C488        H492   1.083       .  S
C493        C498   1.386       .  A
C493        C494   1.402       .  A
C493        S499   1.704       .  A
C494        C495   1.402       .  A
C494        H505   1.083       .  S
C495        C504   1.373       .  A
C495        C496   1.387       .  A
C496        C497   1.402       .  A
C496        S502   1.704       .  A
C497        C498   1.402       .  A
C497        H506   1.083       .  S
C498        C501   1.372       .  A
S499        C500   1.727       .  A
C500        C501   1.388       .  A
C501        H507   1.083       .  S
S502        C503   1.724       .  A
C503        C504   1.386       .  A
C504        H508   1.083       .  S
C509        C514   1.387       .  A
C509        C510   1.402       .  A
C509        S515   1.706       .  A
C510        C511   1.402       .  A
C510        H521   1.083       .  S
C511        C520   1.371       .  A
C511        C512   1.386       .  A
C512        C513   1.405       .  A
C512        S518   1.710       .  A
C513        C514   1.405       .  A
C513        H522   1.083       .  S
C514        C517   1.375       .  A
S515        C516   1.724       .  A
C516        C517   1.388       .  A
C517        H523   1.083       .  S
S518        C519   1.727       .  A
C519        C520   1.389       .  A
C520        H524   1.083       .  S
C525        C530   1.386       .  A
C525        C526   1.405       .  A
C525        S531   1.707       .  A
C526        C527   1.404       .  A
C526        H537   1.083       .  S
C527        C536   1.375       .  A
C527        C528   1.387       .  A
C528        C529   1.400       .  A
C528        S534   1.702       .  A
C529        C530   1.400       .  A
C529        H538   1.083       .  S
C530        C533   1.370       .  A
S531        C532   1.730       .  A
C532        C533   1.388       .  A
C533        H539   1.082       .  S
S534        C535   1.723       .  A
C535        C536   1.388       .  A
C536        H540   1.083       .  S
