geometry optimzed in LAMMPS
_audit_creation_date              2020-12-01 
_audit_creation_method            'lammps2cif' 
_symmetry_space_group_name_H-M    'P1' 
_symmetry_Int_Tables_number       1 
_symmetry_cell_setting            triclinic 
loop_ 
_symmetry_equiv_pos_as_xyz 
  x,y,z 
_cell_length_a                    44.05253858 
_cell_length_b                    44.05880127295274 
_cell_length_c                    44.061117036902814 
_cell_angle_alpha                 90.53550663344201 
_cell_angle_beta                  90.07022297975716 
_cell_angle_gamma                 90.51035829020104 
loop_ 
_atom_site_label 
_atom_site_type_symbol 
_atom_site_fract_x 
_atom_site_fract_y 
_atom_site_fract_z 
_atom_site_charge 
C1          C  0.12138477  0.10588782  0.15041025     0.05400
C2          C  0.09787383  0.12699590  0.15040985    -0.10800
C3          C  0.09509134  0.14827272  0.12722736     0.02900
C4          C  0.11629181  0.14815290  0.10335271    -0.09300
C5          C  0.13970268  0.12661982  0.10251708     0.05400
C6          C  0.14230841  0.10568719  0.12638377    -0.08700
H7          H  0.08160427  0.12698192  0.16887610     0.10900
H8          H  0.11496434  0.16488256  0.08557827     0.08500
H9          H  0.16044290  0.08930497  0.12628597     0.08300
O10         O  0.02471222  0.22490161  0.09024760    -0.70700
O11         O  0.46212496  0.29049036  0.10429698    -0.71700
O12         O  0.02837904  0.28749311  0.10533818    -0.60300
O13         O  0.45908373  0.22707562  0.09127123    -0.68700
O14         O  0.46016013  0.21769415  0.14064655    -0.68300
O15         O  0.02859784  0.27697644  0.15450072    -0.59500
O16         O  0.46242529  0.28108863  0.15370114    -0.72000
O17         O  0.02515063  0.21435046  0.13937958    -0.70800
Cu18       Cu  0.49271780  0.25827241  0.09535255     1.04600
Cu19       Cu  0.99468256  0.24636678  0.14936698     1.04300
C20         C  0.03492623  0.20959780  0.11245772     0.95500
C21         C  0.45303320  0.29649893  0.13120980     0.94600
C22         C  0.03912368  0.29180794  0.13200632     0.86800
C23         C  0.44897108  0.21272352  0.11428134     0.93000
C24         C  0.39825086  0.36245002  0.11810817     0.05400
C25         C  0.37386651  0.36484992  0.09806298    -0.10800
C26         C  0.35252336  0.38818952  0.10116170     0.02900
C27         C  0.35712083  0.41053855  0.12389506    -0.09300
C28         C  0.38221211  0.40886935  0.14393466     0.05400
C29         C  0.40243330  0.38452708  0.14090388    -0.08700
H30         H  0.37184257  0.34837477  0.07976452     0.10900
H31         H  0.34146631  0.42927402  0.12551124     0.08500
H32         H  0.42187838  0.38315744  0.15590781     0.08300
O33         O  0.16318716  0.47714287  0.27777756    -0.70700
O34         O  0.16854690  0.03433848  0.22019085    -0.71700
O35         O  0.16505885  0.02923519  0.28479003    -0.60300
O36         O  0.16205112  0.47428729  0.21325005    -0.68700
O37         O  0.11252231  0.46461031  0.21420105    -0.68300
O38         O  0.11492332  0.03349837  0.28264974    -0.59500
O39         O  0.11838307  0.03802129  0.21849411    -0.72000
O40         O  0.11368219  0.46736573  0.27820312    -0.70800
Cu41       Cu  0.16557722  0.99975465  0.25005511     1.04600
Cu42       Cu  0.10506643  0.49702085  0.24543706     1.04300
C43         C  0.14040537  0.46251872  0.28825736     0.95500
C44         C  0.14461432  0.04655038  0.20951226     0.94600
C45         C  0.14043314  0.04044751  0.29489904     0.86800
C46         C  0.13900302  0.45916132  0.20378682     0.93000
O47         O  0.35388948  0.04545285  0.29205718    -0.70700
O48         O  0.35332968  0.48362352  0.22047509    -0.71700
O49         O  0.36406355  0.47769409  0.28412966    -0.60300
O50         O  0.35033320  0.04451104  0.22747444    -0.68700
O51         O  0.39997085  0.03657494  0.22547181    -0.68300
O52         O  0.41359266  0.47420178  0.27600816    -0.59500
O53         O  0.40274784  0.47878685  0.21239301    -0.72000
O54         O  0.40345852  0.03742084  0.28984360    -0.70800
Cu55       Cu  0.36024729  0.51300540  0.25494574     1.04600
Cu56       Cu  0.39796095  0.00463362  0.25771990     1.04300
C57         C  0.38091697  0.05193455  0.30080779     0.95500
C58         C  0.37521120  0.47181230  0.20569876     0.94600
C59         C  0.38958629  0.46495106  0.28932078     0.86800
C60         C  0.37644098  0.05050329  0.21624121     0.93000
C61         C  0.10508097  0.34703939  0.35932335     0.05400
C62         C  0.10529116  0.37053940  0.33824591    -0.10800
C63         C  0.12515622  0.39531103  0.34134118     0.02900
C64         C  0.14561190  0.39632726  0.36581354    -0.09300
C65         C  0.14641894  0.37265215  0.38695959     0.05400
C66         C  0.12576614  0.34807213  0.38375256    -0.08700
H67         H  0.08933874  0.36981866  0.31946774     0.10900
H68         H  0.16068054  0.41568384  0.36877865     0.08500
H69         H  0.12558203  0.32995696  0.40013048     0.08300
O70         O  0.47328418  0.29265025  0.34316901    -0.70700
O71         O  0.03318253  0.21301389  0.33974871    -0.71700
O72         O  0.46963819  0.22761974  0.34473251    -0.60300
O73         O  0.03658365  0.27700923  0.34512369    -0.68700
O74         O  0.03065671  0.27372870  0.39499250    -0.68300
O75         O  0.46000811  0.22940735  0.39409261    -0.59500
O76         O  0.02823698  0.20953537  0.38974120    -0.72000
O77         O  0.46298906  0.29448280  0.39240593    -0.70800
Cu78       Cu  0.00305109  0.24628119  0.33699266     1.04600
Cu79       Cu  0.49261888  0.26094647  0.40181103     1.04300
C80         C  0.45877299  0.30422792  0.36542928     0.95500
C81         C  0.04056779  0.20094858  0.36484341     0.94600
C82         C  0.45474854  0.21812517  0.36772180     0.86800
C83         C  0.04429731  0.28494947  0.37211686     0.93000
C84         C  0.39215704  0.15825870  0.38557478     0.05400
C85         C  0.39076312  0.13582648  0.36242177    -0.10800
C86         C  0.36717040  0.11385625  0.36229402     0.02900
C87         C  0.34523148  0.11458716  0.38538801    -0.09300
C88         C  0.34688809  0.13614170  0.40904088     0.05400
C89         C  0.37027062  0.15787099  0.40873989    -0.08700
H90         H  0.40761337  0.13556927  0.34458348     0.10900
H91         H  0.32665992  0.09833715  0.38460486     0.08500
H92         H  0.37137514  0.17479610  0.42675153     0.08300
O93         O  0.21144880  0.37989849  0.46144473    -0.70700
O94         O  0.28080478  0.38951251  0.03150998    -0.71700
O95         O  0.27601837  0.38275508  0.46345258    -0.60300
O96         O  0.21613763  0.38561730  0.02846554    -0.68700
O97         O  0.21832144  0.33528156  0.02752578    -0.68300
O98         O  0.27767724  0.33245313  0.46514253    -0.59500
O99         O  0.28224811  0.33916915  0.03137232    -0.72000
O100        O  0.21328507  0.32961524  0.46293297    -0.70800
Cu101      Cu  0.24973067  0.38912077  0.99751073     1.04600
Cu102      Cu  0.24435892  0.33060635  0.49618144     1.04300
C103        C  0.20248714  0.35383287  0.45170818     0.95500
C104        C  0.29118709  0.36476024  0.04214415     0.94600
C105        C  0.28731512  0.35761131  0.45448959     0.86800
C106        C  0.20668174  0.35972994  0.03764463     0.93000
O107        O  0.27216302  0.08996471  0.47596513    -0.70700
O108        O  0.21106053  0.07938691  0.03269123    -0.71700
O109        O  0.20828953  0.09785339  0.47765454    -0.60300
O110        O  0.27510841  0.08252429  0.03408874    -0.68700
O111        O  0.27324407  0.13285728  0.03486674    -0.68300
O112        O  0.21452726  0.14770194  0.48259122    -0.59500
O113        O  0.20866418  0.12968294  0.03262064    -0.72000
O114        O  0.27863355  0.13981819  0.48041886    -0.70800
Cu115      Cu  0.24404690  0.07915560  0.00109854     1.04600
Cu116      Cu  0.24728300  0.14270397  0.51377289     1.04300
C117        C  0.28527262  0.11448889  0.46772556     0.95500
C118        C  0.19966211  0.10406513  0.04277754     0.94600
C119        C  0.20110364  0.12489643  0.47035228     0.86800
C120        C  0.28389239  0.10800057  0.04509334     0.93000
C121        C  0.37008230  0.40484420  0.35037554     0.05400
C122        C  0.34627659  0.40350428  0.37150702    -0.10800
C123        C  0.34637349  0.38244612  0.39508665     0.02900
C124        C  0.37097146  0.36270359  0.39788987    -0.09300
C125        C  0.39478817  0.36291319  0.37683887     0.05400
C126        C  0.39430320  0.38406519  0.35290091    -0.08700
H127        H  0.32750230  0.41914960  0.36971297     0.10900
H128        H  0.37181846  0.34709705  0.41671217     0.08500
H129        H  0.41269565  0.38446116  0.33670362     0.08300
C130        C  0.38729636  0.15227880  0.13150007     0.05400
C131        C  0.36560777  0.15300585  0.10801560    -0.10800
C132        C  0.34159770  0.13186852  0.10701090     0.02900
C133        C  0.33877811  0.11041096  0.13035806    -0.09300
C134        C  0.36017377  0.10929800  0.15390508     0.05400
C135        C  0.38422451  0.13049256  0.15440110    -0.08700
H136        H  0.36702857  0.17005471  0.09054913     0.10900
H137        H  0.31982977  0.09457342  0.13039763     0.08500
H138        H  0.40040575  0.13046027  0.17292737     0.08300
C139        C  0.11877742  0.09546728  0.35950986     0.05400
C140        C  0.09725399  0.11849398  0.36199140    -0.10800
C141        C  0.09792328  0.13919386  0.38650759     0.02900
C142        C  0.11987875  0.13578895  0.40933874    -0.09300
C143        C  0.14140070  0.11238203  0.40739962     0.05400
C144        C  0.14052046  0.09226190  0.38256716    -0.08700
H145        H  0.07984055  0.12001302  0.34472588     0.10900
H146        H  0.11989383  0.15116862  0.42865405     0.08500
H147        H  0.15665472  0.07388150  0.38152052     0.08300
C148        C  0.14638550  0.37782646  0.09804431     0.05400
C149        C  0.14516137  0.39864885  0.12221850    -0.10800
C150        C  0.12268995  0.39601049  0.14473942     0.02900
C151        C  0.10102507  0.37252654  0.14244565    -0.09300
C152        C  0.10170494  0.35172306  0.11808662     0.05400
C153        C  0.12423515  0.35472531  0.09588339    -0.08700
H154        H  0.16151964  0.41710844  0.12300240     0.10900
H155        H  0.08312397  0.37110295  0.15921152     0.08500
H156        H  0.12407408  0.33925166  0.07663542     0.08300
C157        C  0.17709319  0.13027157  0.44768509    -0.14200
C158        C  0.16461062  0.10754775  0.43124822    -0.29400
H159        H  0.17036958  0.15356005  0.44378288     0.14800
H160        H  0.17299790  0.08461817  0.43409213     0.15400
C161        C  0.30612173  0.10779347  0.07018111    -0.14200
C162        C  0.31937313  0.13300572  0.08163069    -0.29400
H163        H  0.31213370  0.08577168  0.07916755     0.14800
H164        H  0.31495029  0.15479983  0.07123521     0.15400
C165        C  0.32106807  0.38239222  0.41727685    -0.14200
C166        C  0.31196906  0.35724470  0.43192152    -0.29400
H167        H  0.30897087  0.40350240  0.42093983     0.14800
H168        H  0.32248757  0.33556937  0.42698226     0.15400
C169        C  0.18208339  0.35718324  0.06003456    -0.14200
C170        C  0.17058055  0.38118493  0.07490040    -0.29400
H171        H  0.17401513  0.33444813  0.06515720     0.14800
H172        H  0.18025209  0.40362757  0.07121531     0.15400
C173        C  0.32397702  0.13736265  0.43385009    -0.14200
C174        C  0.30801970  0.11296415  0.44312928    -0.29400
H175        H  0.32093270  0.15892805  0.44558976     0.14800
H176        H  0.31195996  0.09087575  0.43284282     0.15400
C177        C  0.07543158  0.16406991  0.38882631    -0.14200
C178        C  0.06342773  0.17679901  0.36398522    -0.29400
H179        H  0.06938056  0.17265049  0.41119353     0.14800
H180        H  0.07113053  0.16980394  0.34161705     0.15400
C181        C  0.41977757  0.34091414  0.38171513    -0.14200
C182        C  0.43674508  0.32876827  0.35944583    -0.29400
H183        H  0.42264773  0.33245741  0.40463210     0.14800
H184        H  0.43348803  0.33579643  0.33613258     0.15400
C185        C  0.43163761  0.19358690  0.36370622    -0.14200
C186        C  0.41632550  0.18213317  0.38752608    -0.29400
H187        H  0.42716556  0.18506078  0.34093340     0.14800
H188        H  0.42061515  0.19190553  0.40988728     0.15400
C189        C  0.16854069  0.37509305  0.41249463    -0.14200
C190        C  0.17952347  0.35098531  0.42729233    -0.29400
H191        H  0.17729026  0.39756070  0.41828917     0.14800
H192        H  0.17237432  0.32820860  0.42078070     0.15400
C193        C  0.08273529  0.32198835  0.35463260    -0.14200
C194        C  0.06894970  0.30739691  0.37748109    -0.29400
H195        H  0.07538463  0.31728267  0.33148687     0.14800
H196        H  0.07478019  0.31302675  0.40082684     0.15400
C197        C  0.38007217  0.07378826  0.19256350    -0.14200
C198        C  0.35637446  0.08628953  0.17814176    -0.29400
H199        H  0.40308001  0.08003539  0.18620201     0.14800
H200        H  0.33352177  0.07831003  0.18314312     0.15400
C201        C  0.39215669  0.43953352  0.31102587    -0.14200
C202        C  0.36816990  0.42842658  0.32631580    -0.29400
H203        H  0.41467350  0.43072483  0.31520936     0.14800
H204        H  0.34609462  0.43851441  0.32238945     0.15400
C205        C  0.38639349  0.07647633  0.32362417    -0.14200
C206        C  0.36333372  0.09052250  0.33785769    -0.29400
H207        H  0.40968666  0.08241313  0.32938923     0.14800
H208        H  0.34025482  0.08302477  0.33294459     0.15400
C209        C  0.14320601  0.43563766  0.18020209    -0.14200
C210        C  0.11989905  0.41852310  0.16981761    -0.29400
H211        H  0.16591821  0.43260923  0.17125286     0.14800
H212        H  0.09771416  0.42088653  0.18030517     0.15400
C213        C  0.14203046  0.06124055  0.32122538    -0.14200
C214        C  0.11733733  0.07461269  0.33292993    -0.29400
H215        H  0.16427914  0.06579319  0.33095416     0.14800
H216        H  0.09547587  0.07120941  0.32189292     0.15400
C217        C  0.14499330  0.43945176  0.31183713    -0.14200
C218        C  0.12237426  0.42024504  0.31926351    -0.29400
H219        H  0.16735685  0.43735677  0.32192392     0.14800
H220        H  0.10081787  0.42182360  0.30735731     0.15400
C221        C  0.31426510  0.36474030  0.06652919    -0.14200
C222        C  0.32636494  0.38991419  0.07964175    -0.29400
H223        H  0.32205105  0.34254661  0.07346018     0.14800
H224        H  0.31727401  0.41205999  0.07424616     0.15400
C225        C  0.38906504  0.43246907  0.16756385    -0.14200
C226        C  0.36790999  0.44990134  0.18090449    -0.29400
H227        H  0.41237710  0.43434016  0.17553191     0.14800
H228        H  0.34420886  0.44709517  0.17465243     0.15400
C229        C  0.07801126  0.32790826  0.11396359    -0.14200
C230        C  0.06351207  0.31447822  0.13716525    -0.29400
H231        H  0.07289091  0.32063030  0.09086084     0.14800
H232        H  0.06970074  0.32001960  0.16043879     0.15400
C233        C  0.41275686  0.17459108  0.13381948    -0.14200
C234        C  0.42393103  0.19047081  0.11027484    -0.29400
H235        H  0.42327186  0.17751700  0.15599721     0.14800
H236        H  0.41487849  0.18712543  0.08758073     0.15400
C237        C  0.41975351  0.33724359  0.11354291    -0.14200
C238        C  0.43202969  0.32186922  0.13662044    -0.29400
H239        H  0.42405592  0.32989746  0.09033329     0.14800
H240        H  0.42641042  0.32786781  0.15990148     0.15400
C241        C  0.17643588  0.10261609  0.06687857    -0.14200
C242        C  0.16191148  0.12742891  0.07716360    -0.29400
H243        H  0.17129955  0.08050609  0.07635089     0.14800
H244        H  0.16589153  0.14908536  0.06617686     0.15400
C245        C  0.12181634  0.08332556  0.17508228    -0.14200
C246        C  0.14697240  0.07003631  0.18586436    -0.29400
H247        H  0.10003578  0.07799386  0.18541394     0.14800
H248        H  0.16920645  0.07596037  0.17700101     0.15400
C249        C  0.05872002  0.18671949  0.10702646    -0.14200
C250        C  0.07057198  0.17099912  0.13015303    -0.29400
H251        H  0.06661274  0.18311482  0.08396969     0.14800
H252        H  0.06132645  0.17445240  0.15278004     0.15400
C253        C  0.12784927  0.11492196  0.66374053     0.05400
C254        C  0.10546204  0.13721012  0.66663758    -0.10800
C255        C  0.10344045  0.16096327  0.64581919     0.02900
C256        C  0.12476937  0.16266651  0.62200360    -0.09300
C257        C  0.14703791  0.14025270  0.61844462     0.05400
C258        C  0.14859143  0.11663867  0.63963865    -0.08700
H259        H  0.08899078  0.13564766  0.68484094     0.10900
H260        H  0.12394458  0.18114642  0.60600080     0.08500
H261        H  0.16571549  0.09940740  0.63707157     0.08300
O262        O  0.02639785  0.22482175  0.60272424    -0.70700
O263        O  0.46055193  0.28811644  0.60296401    -0.71700
O264        O  0.02065112  0.28869618  0.60338614    -0.60300
O265        O  0.46202843  0.22451293  0.59232886    -0.68700
O266        O  0.46375925  0.21661266  0.64197314    -0.68300
O267        O  0.01999015  0.28885729  0.65378251    -0.59500
O268        O  0.46153188  0.28055437  0.65269568    -0.72000
O269        O  0.02754388  0.22491044  0.65308424    -0.70800
Cu270      Cu  0.49334249  0.25802643  0.59514117     1.04600
Cu271      Cu  0.99156730  0.25376901  0.65544926     1.04300
C272        C  0.03830738  0.21609055  0.62746513     0.95500
C273        C  0.45096426  0.29431651  0.62963226     0.94600
C274        C  0.02958422  0.29977885  0.62889122     0.86800
C275        C  0.45311872  0.21000538  0.61571695     0.93000
C276        C  0.39341572  0.35706491  0.61354656     0.05400
C277        C  0.36890801  0.35928770  0.59354668    -0.10800
C278        C  0.34865960  0.38376324  0.59543054     0.02900
C279        C  0.35434965  0.40704619  0.61687847    -0.09300
C280        C  0.37944560  0.40534794  0.63680247     0.05400
C281        C  0.39870767  0.38025630  0.63492216    -0.08700
H282        H  0.36598575  0.34189519  0.57624030     0.10900
H283        H  0.33947365  0.42646394  0.61770489     0.08500
H284        H  0.41825209  0.37912325  0.64981943     0.08300
O285        O  0.15709910  0.47731258  0.77575214    -0.70700
O286        O  0.17120393  0.03037044  0.71979316    -0.71700
O287        O  0.16640591  0.02231559  0.78345288    -0.60300
O288        O  0.15365749  0.47655336  0.71091656    -0.68700
O289        O  0.10448692  0.46541593  0.71306777    -0.68300
O290        O  0.11635693  0.02681688  0.78025104    -0.59500
O291        O  0.12110528  0.03442633  0.71687896    -0.72000
O292        O  0.10803486  0.46575635  0.77793717    -0.70800
Cu293      Cu  0.16750899  0.99428019  0.74760223     1.04600
Cu294      Cu  0.09701346  0.49622188  0.74607203     1.04300
C295        C  0.13526840  0.46211397  0.78731181     0.95500
C296        C  0.14764237  0.04393287  0.70999382     0.94600
C297        C  0.14164096  0.03354589  0.79314987     0.86800
C298        C  0.13067250  0.46146014  0.70124660     0.93000
O299        O  0.36235649  0.04213061  0.78924782    -0.70700
O300        O  0.35170576  0.47958690  0.71324216    -0.71700
O301        O  0.36266350  0.47294589  0.77689405    -0.60300
O302        O  0.36673078  0.03363784  0.72546707    -0.68700
O303        O  0.41668164  0.02942971  0.72994489    -0.68300
O304        O  0.41218196  0.46967682  0.76854453    -0.59500
O305        O  0.40111192  0.47452981  0.70511117    -0.72000
O306        O  0.41222743  0.03698194  0.79369575    -0.70800
Cu307      Cu  0.35873122  0.50850387  0.74773848     1.04600
Cu308      Cu  0.41229371  0.00105710  0.76565340     1.04300
C309        C  0.38790021  0.05104290  0.80024040     0.95500
C310        C  0.37350549  0.46788844  0.69834444     0.94600
C311        C  0.38834479  0.46044155  0.78206993     0.86800
C312        C  0.39349778  0.04052628  0.71665799     0.93000
C313        C  0.10613112  0.35270572  0.86917859     0.05400
C314        C  0.10414655  0.37557760  0.84757041    -0.10800
C315        C  0.12431221  0.40020515  0.84772049     0.02900
C316        C  0.14727119  0.40182920  0.86997889    -0.09300
C317        C  0.15002216  0.37878591  0.89182613     0.05400
C318        C  0.12894856  0.35437618  0.89147937    -0.08700
H319        H  0.08649152  0.37423976  0.83039859     0.10900
H320        H  0.16277117  0.42104176  0.87056121     0.08500
H321        H  0.13018625  0.33672453  0.90832078     0.08300
O322        O  0.47534363  0.29156917  0.83949681    -0.70700
O323        O  0.03627357  0.21705001  0.85661766    -0.71700
O324        O  0.47050050  0.22677276  0.84073347    -0.60300
O325        O  0.04054471  0.28114281  0.85854676    -0.68700
O326        O  0.03126804  0.28100383  0.90801968    -0.68300
O327        O  0.46106256  0.22858014  0.89015185    -0.59500
O328        O  0.02673402  0.21691976  0.90608244    -0.72000
O329        O  0.46543759  0.29343863  0.88880140    -0.70800
Cu330      Cu  0.00724891  0.25120563  0.84941092     1.04600
Cu331      Cu  0.49446743  0.25926820  0.89775295     1.04300
C332        C  0.46113746  0.30332856  0.86190241     0.95500
C333        C  0.04102879  0.20651425  0.88314291     0.94600
C334        C  0.45533338  0.21774431  0.86370221     0.86800
C335        C  0.04661405  0.29061067  0.88540927     0.93000
C336        C  0.39060229  0.15995755  0.88002120     0.05400
C337        C  0.39003919  0.13794342  0.85650870    -0.10800
C338        C  0.36692094  0.11559925  0.85549980     0.02900
C339        C  0.34455693  0.11538125  0.87801006    -0.09300
C340        C  0.34551489  0.13628658  0.90218802     0.05400
C341        C  0.36828725  0.15870312  0.90276844    -0.08700
H342        H  0.40740952  0.13798148  0.83918283     0.10900
H343        H  0.32651796  0.09854205  0.87675642     0.08500
H344        H  0.36879824  0.17512105  0.92125075     0.08300
O345        O  0.21871668  0.38536614  0.96359811    -0.70700
O346        O  0.27477247  0.38518280  0.52812918    -0.71700
O347        O  0.28356471  0.38859987  0.96656633    -0.60300
O348        O  0.21007696  0.38271052  0.52609362    -0.68700
O349        O  0.21099520  0.33234842  0.52703549    -0.68300
O350        O  0.28557233  0.33827324  0.96732161    -0.59500
O351        O  0.27523970  0.33483220  0.52932809    -0.72000
O352        O  0.22131213  0.33509438  0.96352589    -0.70800
Cu353      Cu  0.24300943  0.38444016  0.49473383     1.04600
Cu354      Cu  0.25196036  0.33529278  0.99742247     1.04300
C355        C  0.21013666  0.35951850  0.95302624     0.95500
C356        C  0.28497134  0.36048939  0.53911696     0.94600
C357        C  0.29519541  0.36364864  0.95733735     0.86800
C358        C  0.20002291  0.35750095  0.53629547     0.93000
O359        O  0.27691916  0.08272755  0.96962687    -0.70700
O360        O  0.20943790  0.09209218  0.54178158    -0.71700
O361        O  0.21277967  0.07879083  0.96810097    -0.60300
O362        O  0.27333312  0.08448093  0.54026643    -0.68700
O363        O  0.27955149  0.13435575  0.54473699    -0.68300
O364        O  0.21022084  0.12906508  0.96772639    -0.59500
O365        O  0.21541554  0.14197736  0.54670430    -0.72000
O366        O  0.27480148  0.13305157  0.97018611    -0.70800
Cu367      Cu  0.24057711  0.08937093  0.50874598     1.04600
Cu368      Cu  0.24164227  0.13296765  0.00134218     1.04300
C369        C  0.28618337  0.10843960  0.95995197     0.95500
C370        C  0.20249254  0.11717900  0.55462383     0.94600
C371        C  0.20172500  0.10309076  0.95732572     0.86800
C372        C  0.28671890  0.10742396  0.55236964     0.93000
C373        C  0.37254341  0.40447446  0.84761363     0.05400
C374        C  0.35095170  0.40560426  0.87096776    -0.10800
C375        C  0.35287651  0.38648058  0.89600692     0.02900
C376        C  0.37723497  0.36629441  0.89808617    -0.09300
C377        C  0.39886575  0.36398713  0.87486076     0.05400
C378        C  0.39644921  0.38322081  0.84945527    -0.08700
H379        H  0.33234416  0.42149784  0.86962916     0.10900
H380        H  0.37940335  0.35210278  0.91790319     0.08500
H381        H  0.41305245  0.38175264  0.83149754     0.08300
C382        C  0.39837942  0.14315631  0.63228225     0.05400
C383        C  0.37481667  0.14468780  0.61081165    -0.10800
C384        C  0.35213453  0.12219354  0.60927253     0.02900
C385        C  0.35273933  0.09816528  0.63006234    -0.09300
C386        C  0.37590364  0.09635042  0.65193055     0.05400
C387        C  0.39862646  0.11901495  0.65286994    -0.08700
H388        H  0.37350498  0.16377481  0.59559927     0.10900
H389        H  0.33469271  0.08132927  0.63003060     0.08500
H390        H  0.41603912  0.11860812  0.67020770     0.08300
C391        C  0.11999345  0.09562689  0.85102639     0.05400
C392        C  0.09878703  0.11891848  0.84858191    -0.10800
C393        C  0.09891852  0.14336800  0.86898138     0.02900
C394        C  0.12075850  0.14465305  0.89225070    -0.09300
C395        C  0.14210468  0.12140729  0.89549619     0.05400
C396        C  0.14164375  0.09686085  0.87462791    -0.08700
H397        H  0.08211637  0.11815945  0.83044210     0.10900
H398        H  0.12140796  0.16393488  0.90769414     0.08500
H399        H  0.15813420  0.07898127  0.87651041     0.08300
C400        C  0.13845575  0.38170242  0.59312183     0.05400
C401        C  0.13730921  0.40322890  0.61679064    -0.10800
C402        C  0.11301736  0.40310110  0.63751334     0.02900
C403        C  0.08950479  0.38175115  0.63367103    -0.09300
C404        C  0.09043549  0.35991010  0.61021652     0.05400
C405        C  0.11471343  0.36037708  0.58978713    -0.08700
H406        H  0.15527379  0.42005232  0.61875038     0.10900
H407        H  0.07038875  0.38236501  0.64907385     0.08500
H408        H  0.11497912  0.34405841  0.57124893     0.08300
C409        C  0.17914598  0.10026797  0.93254421    -0.14200
C410        C  0.16508472  0.12421169  0.92029026    -0.29400
H411        H  0.17362523  0.07745903  0.92472887     0.14800
H412        H  0.16972245  0.14673079  0.92955725     0.15400
C413        C  0.31064881  0.10254976  0.57533118    -0.14200
C414        C  0.32727613  0.12575900  0.58677140    -0.29400
H415        H  0.31512886  0.07941158  0.58214947     0.14800
H416        H  0.32338368  0.14849374  0.57829846     0.15400
C417        C  0.32903315  0.38798734  0.91971353    -0.14200
C418        C  0.31998674  0.36328097  0.93498272    -0.29400
H419        H  0.31727045  0.40931751  0.92317813     0.14800
H420        H  0.33013258  0.34142564  0.93000205     0.15400
C421        C  0.17515785  0.35694743  0.55856316    -0.14200
C422        C  0.16430041  0.38231885  0.57163914    -0.29400
H423        H  0.16573344  0.33492554  0.56446620     0.14800
H424        H  0.17521768  0.40404866  0.56721981     0.15400
C425        C  0.32257980  0.13540977  0.92679528    -0.14200
C426        C  0.30983808  0.10930150  0.93633929    -0.29400
H427        H  0.31677157  0.15667320  0.93796003     0.14800
H428        H  0.31700928  0.08775314  0.92671752     0.15400
C429        C  0.07657910  0.16778976  0.86456447    -0.14200
C430        C  0.06351661  0.18247759  0.88785201    -0.29400
H431        H  0.06943272  0.17259577  0.84149146     0.14800
H432        H  0.06900881  0.17637409  0.91103606     0.15400
C433        C  0.42348269  0.34126767  0.87891738    -0.14200
C434        C  0.43931046  0.32821714  0.85623686    -0.29400
H435        H  0.42729658  0.33330912  0.90187903     0.14800
H436        H  0.43538898  0.33483154  0.83291258     0.15400
C437        C  0.43137704  0.19423914  0.85940895    -0.14200
C438        C  0.41473085  0.18376227  0.88277261    -0.29400
H439        H  0.42748077  0.18558779  0.83659084     0.14800
H440        H  0.41830032  0.19378593  0.90514424     0.15400
C441        C  0.17440382  0.38137821  0.91530669    -0.14200
C442        C  0.18672501  0.35711571  0.92891405    -0.29400
H443        H  0.18301518  0.40392329  0.92095054     0.14800
H444        H  0.17959153  0.33439649  0.92217555     0.15400
C445        C  0.08437650  0.32702880  0.86650298    -0.14200
C446        C  0.07120070  0.31326461  0.89024613    -0.29400
H447        H  0.07669633  0.32122298  0.84370037     0.14800
H448        H  0.07713838  0.32000455  0.91328464     0.15400
C449        C  0.39767777  0.06216594  0.69149284    -0.14200
C450        C  0.37389323  0.07219021  0.67522177    -0.29400
H451        H  0.42050935  0.07023919  0.68675920     0.14800
H452        H  0.35155924  0.06236383  0.67928446     0.15400
C453        C  0.39163773  0.43561093  0.80426839    -0.14200
C454        C  0.36879311  0.42616117  0.82207125    -0.29400
H455        H  0.41422115  0.42650474  0.80732188     0.14800
H456        H  0.34674575  0.43672637  0.81945254     0.15400
C457        C  0.38995941  0.07760536  0.82089258    -0.14200
C458        C  0.36527504  0.09172990  0.83158177    -0.29400
H459        H  0.41234450  0.08459681  0.82879357     0.14800
H460        H  0.34291863  0.08330222  0.82503920     0.15400
C461        C  0.13455734  0.43971157  0.67583788    -0.14200
C462        C  0.11067975  0.42520330  0.66307259    -0.29400
H463        H  0.15739889  0.43583214  0.66758877     0.14800
H464        H  0.08821190  0.42884327  0.67253206     0.15400
C465        C  0.14296224  0.05501614  0.81902932    -0.14200
C466        C  0.11859266  0.07071442  0.82812929    -0.29400
H467        H  0.16501309  0.05949923  0.82920553     0.14800
H468        H  0.09714341  0.06703520  0.81636794     0.15400
C469        C  0.14174673  0.44036063  0.81184427    -0.14200
C470        C  0.11942103  0.42398559  0.82466267    -0.29400
H471        H  0.16514214  0.43734349  0.81890974     0.14800
H472        H  0.09636047  0.42651866  0.81628595     0.15400
C473        C  0.30871985  0.36050220  0.56279028    -0.14200
C474        C  0.32233669  0.38564941  0.57420811    -0.29400
H475        H  0.31571316  0.33833501  0.57059712     0.14800
H476        H  0.31417533  0.40790298  0.56784507     0.15400
C477        C  0.38698110  0.42940856  0.65953803    -0.14200
C478        C  0.36594132  0.44639921  0.67343168    -0.29400
H479        H  0.41048067  0.43147981  0.66688994     0.14800
H480        H  0.34212563  0.44326672  0.66773856     0.15400
C481        C  0.06658209  0.33608004  0.60677520    -0.14200
C482        C  0.05139981  0.32517541  0.63075979    -0.29400
H483        H  0.06306737  0.32573670  0.58454132     0.14800
H484        H  0.05640113  0.33384535  0.65337246     0.15400
C485        C  0.42190960  0.16745325  0.63511202    -0.14200
C486        C  0.43019198  0.18559076  0.61204226    -0.29400
H487        H  0.43331959  0.17002990  0.65688242     0.14800
H488        H  0.42047291  0.18225831  0.58961421     0.15400
C489        C  0.41435004  0.33120458  0.61025692    -0.14200
C490        C  0.42827396  0.31832792  0.63398957    -0.29400
H491        H  0.41790186  0.32211344  0.58753183     0.14800
H492        H  0.42339156  0.32592035  0.65697900     0.15400
C493        C  0.17972641  0.11665354  0.57915558    -0.14200
C494        C  0.16869622  0.14182533  0.59259428    -0.29400
H495        H  0.17167349  0.09445741  0.58622758     0.14800
H496        H  0.17508794  0.16402542  0.58402897     0.15400
C497        C  0.12710088  0.08877870  0.68471846    -0.14200
C498        C  0.15096623  0.07076488  0.69045358    -0.29400
H499        H  0.10566370  0.08420250  0.69606556     0.14800
H500        H  0.17323097  0.07583635  0.68121041     0.15400
C501        C  0.06475340  0.19577266  0.62524435    -0.14200
C502        C  0.07826155  0.18306808  0.64925909    -0.29400
H503        H  0.07263632  0.19025832  0.60252817     0.14800
H504        H  0.06909276  0.18710506  0.67181092     0.15400
C505        C  0.13313832  0.60564549  0.14425724     0.05400
C506        C  0.10938346  0.62618066  0.14863635    -0.10800
C507        C  0.10419365  0.64928630  0.12769649     0.02900
C508        C  0.12323003  0.65197546  0.10216568    -0.09300
C509        C  0.14703898  0.63147547  0.09762608     0.05400
C510        C  0.15218866  0.60881356  0.11921816    -0.08700
H511        H  0.09507813  0.62445489  0.16855348     0.10900
H512        H  0.11983283  0.67007224  0.08607205     0.08500
H513        H  0.17116116  0.59351163  0.11669885     0.08300
O514        O  0.02164910  0.71436038  0.09722993    -0.70700
O515        O  0.45979817  0.78919607  0.10985899    -0.71700
O516        O  0.02205233  0.77813467  0.09667847    -0.60300
O517        O  0.45704724  0.72468420  0.11139866    -0.68700
O518        O  0.47084078  0.72548162  0.15982857    -0.68300
O519        O  0.03470299  0.77949014  0.14546789    -0.59500
O520        O  0.47389227  0.79010745  0.15821748    -0.72000
O521        O  0.03481118  0.71525923  0.14588415    -0.70800
Cu522      Cu  0.48880803  0.75539785  0.09959458     1.04600
Cu523      Cu  0.00413106  0.74721606  0.15623031     1.04300
C524        C  0.03838885  0.70511065  0.11884054     0.95500
C525        C  0.45752651  0.80027680  0.13671305     0.94600
C526        C  0.03830740  0.78882805  0.11827827     0.86800
C527        C  0.45365637  0.71534049  0.13860477     0.93000
C528        C  0.39359631  0.85943492  0.12793021     0.05400
C529        C  0.36904366  0.86110781  0.10782061    -0.10800
C530        C  0.34646508  0.88322534  0.11136956     0.02900
C531        C  0.34927704  0.90467648  0.13506779    -0.09300
C532        C  0.37390849  0.90356807  0.15560208     0.05400
C533        C  0.39593922  0.88088530  0.15172316    -0.08700
H534        H  0.36794878  0.84528306  0.08888793     0.10900
H535        H  0.33250608  0.92237754  0.13699427     0.08500
H536        H  0.41523911  0.88056830  0.16692350     0.08300
O537        O  0.15843158  0.96517068  0.27930583    -0.70700
O538        O  0.14931434  0.53732966  0.21138039    -0.71700
O539        O  0.15042496  0.54033830  0.27525224    -0.60300
O540        O  0.16309278  0.97070170  0.21527043    -0.68700
O541        O  0.11292804  0.97461924  0.21249630    -0.68300
O542        O  0.10094759  0.53034577  0.27633927    -0.59500
O543        O  0.09979671  0.52747947  0.21271090    -0.72000
O544        O  0.10838031  0.96975204  0.27613238    -0.70800
Cu545      Cu  0.15802988  0.50759069  0.24439713     1.04600
Cu546      Cu  0.11194463  0.00420376  0.24739474     1.04300
C547        C  0.13162707  0.95649963  0.28673274     0.95500
C548        C  0.12232143  0.54225448  0.20204371     0.94600
C549        C  0.12379870  0.54611382  0.28513338     0.86800
C550        C  0.13787682  0.96348234  0.20286128     0.93000
O551        O  0.37005195  0.54222556  0.28893256    -0.70700
O552        O  0.33945827  0.98073555  0.22812485    -0.71700
O553        O  0.34300978  0.98133570  0.29276349    -0.60300
O554        O  0.36046387  0.54791319  0.22502101    -0.68700
O555        O  0.41001480  0.54324828  0.21758060    -0.68300
O556        O  0.39255371  0.97311699  0.29020001    -0.59500
O557        O  0.38901901  0.97265207  0.22558170    -0.72000
O558        O  0.41961700  0.53865336  0.28112331    -0.70800
Cu559      Cu  0.34495203  0.01326551  0.26025117     1.04600
Cu560      Cu  0.41318322  0.50857667  0.24647852     1.04300
C561        C  0.39727047  0.54987029  0.29583441     0.95500
C562        C  0.36196214  0.96661581  0.21661737     0.94600
C563        C  0.36652828  0.96707936  0.30158319     0.86800
C564        C  0.38502822  0.55651712  0.21199828     0.93000
C565        C  0.11534201  0.85161371  0.36693892     0.05400
C566        C  0.12030523  0.87305724  0.34398769    -0.10800
C567        C  0.14383675  0.89475232  0.34652825     0.02900
C568        C  0.16293620  0.89436864  0.37184482    -0.09300
C569        C  0.15898108  0.87286453  0.39468118     0.05400
C570        C  0.13502656  0.85148107  0.39229129    -0.08700
H571        H  0.10576665  0.87277155  0.32413732     0.10900
H572        H  0.18116883  0.91099532  0.37377161     0.08500
H573        H  0.13187976  0.83486007  0.40995818     0.08300
O574        O  0.48039046  0.78633251  0.34034201    -0.70700
O575        O  0.03911095  0.72097360  0.35469223    -0.71700
O576        O  0.47980496  0.72132007  0.34238506    -0.60300
O577        O  0.04192466  0.78520206  0.35530896    -0.68700
O578        O  0.03474421  0.78548951  0.40513273    -0.68300
O579        O  0.47358116  0.72300925  0.39231924    -0.59500
O580        O  0.03276940  0.72128074  0.40467492    -0.72000
O581        O  0.47358550  0.78782913  0.39022111    -0.70800
Cu582      Cu  0.00874954  0.75359083  0.34869156     1.04600
Cu583      Cu  0.50512834  0.75600989  0.39742552     1.04300
C584        C  0.46717899  0.79739080  0.36366691     0.95500
C585        C  0.04591224  0.71103046  0.38093379     0.94600
C586        C  0.46700434  0.71138727  0.36640208     0.86800
C587        C  0.04911159  0.79497372  0.38185104     0.93000
C588        C  0.40833143  0.64908547  0.38757855     0.05400
C589        C  0.40723337  0.62680084  0.36439176    -0.10800
C590        C  0.38416753  0.60433907  0.36421354     0.02900
C591        C  0.36225376  0.60453056  0.38742733    -0.09300
C592        C  0.36329366  0.62639245  0.41085495     0.05400
C593        C  0.38655846  0.64829971  0.41078047    -0.08700
H594        H  0.42388370  0.62728759  0.34640141     0.10900
H595        H  0.34380226  0.58814698  0.38653521     0.08500
H596        H  0.38718675  0.66552954  0.42852156     0.08300
O597        O  0.22455157  0.87636411  0.46822168    -0.70700
O598        O  0.27563708  0.88457500  0.04081603    -0.71700
O599        O  0.28921071  0.87835042  0.47072129    -0.60300
O600        O  0.21088379  0.88038490  0.03610879    -0.68700
O601        O  0.21327603  0.83010447  0.03665227    -0.68300
O602        O  0.28959995  0.82796722  0.47032878    -0.59500
O603        O  0.27753694  0.83424912  0.04055676    -0.72000
O604        O  0.22508485  0.82600464  0.46840986    -0.70800
Cu605      Cu  0.24519044  0.88385761  0.00616711     1.04600
Cu606      Cu  0.25632410  0.82540997  0.50146055     1.04300
C607        C  0.21465408  0.85076883  0.45809085     0.95500
C608        C  0.28622708  0.85985414  0.05138666     0.94600
C609        C  0.29975115  0.85332946  0.46058445     0.86800
C610        C  0.20107782  0.85477585  0.04564183     0.93000
O611        O  0.27936255  0.58879940  0.47345112    -0.70700
O612        O  0.21358359  0.58514222  0.02522612    -0.71700
O613        O  0.21682969  0.59612216  0.46231511    -0.60300
O614        O  0.27727616  0.58424973  0.03091955    -0.68700
O615        O  0.27850961  0.63460228  0.03019925    -0.68300
O616        O  0.22311294  0.64595209  0.45760460    -0.59500
O617        O  0.21438496  0.63556282  0.02558520    -0.72000
O618        O  0.28613522  0.63854185  0.46923348    -0.70800
Cu619      Cu  0.24782865  0.58250227  0.99596218     1.04600
Cu620      Cu  0.24971735  0.64800794  0.49479641     1.04300
C621        C  0.29426477  0.61143053  0.46296503     0.95500
C622        C  0.20326733  0.61039050  0.03485672     0.94600
C623        C  0.21168738  0.62071150  0.44835759     0.86800
C624        C  0.28674427  0.60953451  0.04192312     0.93000
C625        C  0.38376435  0.90177264  0.35740762     0.05400
C626        C  0.36040072  0.90141947  0.37929544    -0.10800
C627        C  0.35900176  0.87858616  0.40130172     0.02900
C628        C  0.38186137  0.85662485  0.40205559    -0.09300
C629        C  0.40519262  0.85643722  0.38056149     0.05400
C630        C  0.40609129  0.87912261  0.35829810    -0.08700
H631        H  0.34340608  0.91898000  0.37970812     0.10900
H632        H  0.38193641  0.83970760  0.41972093     0.08500
H633        H  0.42450782  0.87966887  0.34205096     0.08300
C634        C  0.38513816  0.66040713  0.12835210     0.05400
C635        C  0.36262747  0.65882643  0.10589155    -0.10800
C636        C  0.34006989  0.63634912  0.10625606     0.02900
C637        C  0.33928757  0.61552443  0.13020314    -0.09300
C638        C  0.36149228  0.61657178  0.15315774     0.05400
C639        C  0.38442498  0.63921728  0.15216475    -0.08700
H640        H  0.36311366  0.67483087  0.08732760     0.10900
H641        H  0.32159742  0.59829897  0.13087732     0.08500
H642        H  0.40164045  0.64005129  0.16963996     0.08300
C643        C  0.13791666  0.61302994  0.33974555     0.05400
C644        C  0.11239901  0.63190002  0.33934114    -0.10800
C645        C  0.10891249  0.65474841  0.36141074     0.02900
C646        C  0.13133138  0.65885312  0.38383276    -0.09300
C647        C  0.15673143  0.64005295  0.38447440     0.05400
C648        C  0.16024059  0.61768145  0.36189278    -0.08700
H649        H  0.09538795  0.62908595  0.32172866     0.10900
H650        H  0.12920699  0.67666616  0.40078389     0.08500
H651        H  0.18020564  0.60349192  0.36170066     0.08300
C652        C  0.13757302  0.87824757  0.10107063     0.05400
C653        C  0.13528520  0.90353670  0.12046174    -0.10800
C654        C  0.11374797  0.90409604  0.14388982     0.02900
C655        C  0.09366482  0.87971148  0.14719914    -0.09300
C656        C  0.09514091  0.85449973  0.12779710     0.05400
C657        C  0.11713320  0.85372401  0.10462504    -0.08700
H658        H  0.15073404  0.92258130  0.11764894     0.10900
H659        H  0.07713749  0.88008754  0.16543077     0.08500
H660        H  0.11843711  0.83408470  0.08977765     0.08300
C661        C  0.19211667  0.61904413  0.42152449    -0.14200
C662        C  0.17887828  0.64341931  0.40950303    -0.29400
H663        H  0.18666576  0.59649737  0.41281235     0.14800
H664        H  0.18220066  0.66564566  0.41995399     0.15400
C665        C  0.30710679  0.60953658  0.06860720    -0.14200
C666        C  0.31789221  0.63548553  0.08094929    -0.29400
H667        H  0.31379494  0.58781962  0.07783466     0.14800
H668        H  0.31223559  0.65697350  0.07051514     0.15400
C669        C  0.33412533  0.87872862  0.42407245    -0.14200
C670        C  0.32397187  0.85324627  0.43753752    -0.29400
H671        H  0.32331481  0.90024176  0.42923061     0.14800
H672        H  0.33314833  0.83133680  0.43111832     0.15400
C673        C  0.17546910  0.85332471  0.06723392    -0.14200
C674        C  0.16183362  0.87850814  0.07771596    -0.29400
H675        H  0.16841809  0.83113670  0.07523849     0.14800
H676        H  0.17024527  0.90054222  0.07045728     0.15400
C677        C  0.33876468  0.62920007  0.43389086    -0.14200
C678        C  0.32050171  0.60619223  0.44264888    -0.29400
H679        H  0.33545129  0.65156442  0.44392219     0.14800
H680        H  0.32437746  0.58325944  0.43442162     0.15400
C681        C  0.08254004  0.67510992  0.35951010    -0.14200
C682        C  0.06986933  0.68824867  0.38400308    -0.29400
H683        H  0.07322556  0.67932604  0.33709922     0.14800
H684        H  0.07762513  0.68276941  0.40668622     0.15400
C685        C  0.42885911  0.83285845  0.38328233    -0.14200
C686        C  0.44452817  0.82157449  0.35965328    -0.29400
H687        H  0.43236279  0.82324600  0.40563825     0.14800
H688        H  0.44032900  0.82969644  0.33685832     0.15400
C689        C  0.44476406  0.68599738  0.36397950    -0.14200
C690        C  0.43164920  0.67375409  0.38867545    -0.29400
H691        H  0.43898674  0.67751863  0.34147863     0.14800
H692        H  0.43689828  0.68346507  0.41085950     0.15400
C693        C  0.18032165  0.87407272  0.42075139    -0.14200
C694        C  0.19096671  0.84917685  0.43429028    -0.29400
H695        H  0.18972838  0.89612540  0.42711921     0.14800
H696        H  0.18303250  0.82687965  0.42693670     0.15400
C697        C  0.08996501  0.82924414  0.36300095    -0.14200
C698        C  0.07447660  0.81699570  0.38628644    -0.29400
H699        H  0.08283332  0.82380451  0.33994584     0.14800
H700        H  0.08024576  0.82346199  0.40943304     0.15400
C701        C  0.38547590  0.58182936  0.19013227    -0.14200
C702        C  0.36030857  0.59330161  0.17748795    -0.29400
H703        H  0.40761562  0.58986830  0.18275573     0.14800
H704        H  0.33834633  0.58351142  0.18323884     0.15400
C705        C  0.36312454  0.94345749  0.32506706    -0.14200
C706        C  0.38640423  0.92599490  0.33406583    -0.29400
H707        H  0.34059990  0.94000267  0.33436931     0.14800
H708        H  0.40834656  0.92895258  0.32318144     0.15400
C709        C  0.40301305  0.57205780  0.32079969    -0.14200
C710        C  0.38045372  0.58173132  0.33905678    -0.29400
H711        H  0.42611405  0.58007514  0.32435313     0.14800
H712        H  0.35789877  0.57197788  0.33593352     0.15400
C713        C  0.13817364  0.94177307  0.17744042    -0.14200
C714        C  0.11268898  0.92911047  0.16631624    -0.29400
H715        H  0.16015800  0.93447541  0.16910017     0.14800
H716        H  0.09089091  0.93477634  0.17631760     0.15400
C717        C  0.11898332  0.57142644  0.30656321    -0.14200
C718        C  0.14217177  0.58833744  0.31729138    -0.29400
H719        H  0.09593439  0.57591057  0.31397350     0.14800
H720        H  0.16529706  0.58257960  0.31105505     0.15400
C721        C  0.12666008  0.93110410  0.30775355    -0.14200
C722        C  0.14931398  0.91822826  0.32321509    -0.29400
H723        H  0.10336302  0.92392780  0.31172375     0.14800
H724        H  0.17230963  0.92696139  0.32059433     0.15400
C725        C  0.30935847  0.85977698  0.07568462    -0.14200
C726        C  0.32069777  0.88486196  0.08944512    -0.29400
H727        H  0.31778581  0.83765302  0.08209459     0.14800
H728        H  0.31099662  0.90687946  0.08459193     0.15400
C729        C  0.37853228  0.92656662  0.18035262    -0.14200
C730        C  0.35621016  0.94349986  0.19252558    -0.29400
H731        H  0.40137323  0.92916427  0.18941931     0.14800
H732        H  0.33293975  0.94033568  0.18498776     0.15400
C733        C  0.07421522  0.82887422  0.13366153    -0.14200
C734        C  0.06122852  0.81230885  0.11147154    -0.29400
H735        H  0.06731007  0.82520635  0.15703813     0.14800
H736        H  0.06619509  0.81718819  0.08786191     0.15400
C737        C  0.40970683  0.68344474  0.12427673    -0.14200
C738        C  0.42978173  0.69254381  0.14561549    -0.29400
H739        H  0.41105175  0.69390236  0.10205851     0.14800
H740        H  0.42865301  0.68368354  0.16846460     0.15400
C741        C  0.41675683  0.83559089  0.12221281    -0.14200
C742        C  0.43584109  0.82494444  0.14340105    -0.29400
H743        H  0.41716239  0.82535571  0.09967205     0.14800
H744        H  0.43509121  0.83368064  0.16648070     0.15400
C745        C  0.17911903  0.60947100  0.05774922    -0.14200
C746        C  0.16728801  0.63427432  0.07096377    -0.29400
H747        H  0.17183294  0.58708355  0.06508417     0.14800
H748        H  0.17296297  0.65674752  0.06262282     0.15400
C749        C  0.13911107  0.58117740  0.16602297    -0.14200
C750        C  0.11653693  0.56578268  0.17944640    -0.29400
H751        H  0.16255935  0.57487354  0.17008180     0.14800
H752        H  0.09305949  0.57075566  0.17394890     0.15400
C753        C  0.06249359  0.68310817  0.11201723    -0.14200
C754        C  0.07950220  0.67095827  0.13398640    -0.29400
H755        H  0.06630073  0.67681851  0.08844033     0.14800
H756        H  0.07430886  0.67597542  0.15761170     0.15400
C757        C  0.12197311  0.60228755  0.64122640     0.05400
C758        C  0.10162564  0.62639698  0.64454686    -0.10800
C759        C  0.09866443  0.64822097  0.62163058     0.02900
C760        C  0.11683604  0.64552514  0.59518984    -0.09300
C761        C  0.13685516  0.62093163  0.59176874     0.05400
C762        C  0.13914559  0.59965441  0.61486285    -0.08700
H763        H  0.08845764  0.62844249  0.66521651     0.10900
H764        H  0.11565799  0.66214985  0.57737062     0.08500
H765        H  0.15490271  0.58098144  0.61251459     0.08300
O766        O  0.03083027  0.72648146  0.58578596    -0.70700
O767        O  0.46094366  0.78119537  0.60057317    -0.71700
O768        O  0.02765539  0.79016419  0.59514980    -0.60300
O769        O  0.46677668  0.71730073  0.60424157    -0.68700
O770        O  0.47188207  0.72025656  0.65431502    -0.68300
O771        O  0.02647076  0.78407665  0.64510688    -0.59500
O772        O  0.46320767  0.78427280  0.65082385    -0.72000
O773        O  0.03105748  0.71987793  0.63564971    -0.70800
Cu774      Cu  0.49574142  0.75304068  0.59795303     1.04600
Cu775      Cu  0.99657117  0.75005816  0.64161740     1.04300
C776        C  0.04147716  0.71352514  0.60917669     0.95500
C777        C  0.45096505  0.79181617  0.62556206     0.94600
C778        C  0.03645434  0.79789667  0.62185085     0.86800
C779        C  0.46007610  0.70786224  0.63090642     0.93000
C780        C  0.38851472  0.85081151  0.64406303     0.05400
C781        C  0.36904977  0.85155902  0.61858973    -0.10800
C782        C  0.34711264  0.87448697  0.61558451     0.02900
C783        C  0.34513593  0.89699395  0.63826831    -0.09300
C784        C  0.36420122  0.89663958  0.66382541     0.05400
C785        C  0.38530200  0.87300283  0.66682064    -0.08700
H786        H  0.37100408  0.83441884  0.60109088     0.10900
H787        H  0.32873228  0.91502352  0.63594960     0.08500
H788        H  0.39961803  0.87186040  0.68675199     0.08300
O789        O  0.15971102  0.95874275  0.77512848    -0.70700
O790        O  0.13865457  0.53891971  0.71209966    -0.71700
O791        O  0.14189390  0.53966591  0.77592752    -0.60300
O792        O  0.16566687  0.96646588  0.71168376    -0.68700
O793        O  0.11563562  0.97052380  0.70742977    -0.68300
O794        O  0.09277915  0.52816827  0.77830528    -0.59500
O795        O  0.08945649  0.52787316  0.71458957    -0.72000
O796        O  0.10973310  0.96329156  0.77070941    -0.70800
Cu797      Cu  0.14955395  0.50844545  0.74359060     1.04600
Cu798      Cu  0.11397042  0.99893108  0.74365350     1.04300
C799        C  0.13274649  0.94988440  0.78159882     0.95500
C800        C  0.11130805  0.54347482  0.70364160     0.94600
C801        C  0.11548190  0.54419249  0.78698670     0.86800
C802        C  0.14082273  0.95934450  0.69844378     0.93000
O803        O  0.36821232  0.53727168  0.78171323    -0.70700
O804        O  0.35966257  0.96989571  0.73176351    -0.71700
O805        O  0.35404662  0.97823346  0.79588127    -0.60300
O806        O  0.35935958  0.54379492  0.71795011    -0.68700
O807        O  0.40887288  0.53853256  0.71068024    -0.68300
O808        O  0.40383021  0.97310094  0.80110262    -0.59500
O809        O  0.40954190  0.96561054  0.73715232    -0.72000
O810        O  0.41786137  0.53400888  0.77425972    -0.70800
Cu811      Cu  0.35895272  0.00611851  0.76046438     1.04600
Cu812      Cu  0.41169380  0.50401101  0.73936094     1.04300
C813        C  0.39528855  0.54507250  0.78879036     0.95500
C814        C  0.38458719  0.95659191  0.72529374     0.94600
C815        C  0.37669959  0.96679358  0.80958547     0.86800
C816        C  0.38413047  0.55214745  0.70507795     0.93000
C817        C  0.11345380  0.84897228  0.86495669     0.05400
C818        C  0.11993063  0.86859619  0.84086327    -0.10800
C819        C  0.14335127  0.89035613  0.84331021     0.02900
C820        C  0.16102712  0.89167040  0.86963474    -0.09300
C821        C  0.15555128  0.87182867  0.89363181     0.05400
C822        C  0.13158017  0.85051705  0.89135651    -0.08700
H823        H  0.10650207  0.86699494  0.82028998     0.10900
H824        H  0.17918211  0.90838496  0.87151055     0.08500
H825        H  0.12719420  0.83525505  0.90996523     0.08300
O826        O  0.47433446  0.78563598  0.85852360    -0.70700
O827        O  0.03534029  0.72039454  0.85426484    -0.71700
O828        O  0.46954580  0.72129564  0.86556769    -0.60300
O829        O  0.03906050  0.78463134  0.85364146    -0.68700
O830        O  0.03071071  0.78604290  0.90328455    -0.68300
O831        O  0.46804651  0.72739634  0.91560989    -0.59500
O832        O  0.02742698  0.72192503  0.90397692    -0.72000
O833        O  0.47219904  0.79126843  0.90859044    -0.70800
Cu834      Cu  0.00549361  0.75391164  0.84684686     1.04600
Cu835      Cu  0.50211692  0.75774575  0.91523405     1.04300
C836        C  0.46394270  0.79918132  0.88200000     0.95500
C837        C  0.04131485  0.71098336  0.88098069     0.94600
C838        C  0.45822053  0.71455928  0.89140555     0.86800
C839        C  0.04575985  0.79476559  0.88014077     0.93000
C840        C  0.40143808  0.64937094  0.87372166     0.05400
C841        C  0.40147077  0.62511245  0.85279039    -0.10800
C842        C  0.37944454  0.60187285  0.85432175     0.02900
C843        C  0.35720224  0.60322254  0.87712739    -0.09300
C844        C  0.35678776  0.62727500  0.89839174     0.05400
C845        C  0.37871426  0.65042710  0.89619920    -0.08700
H846        H  0.41824842  0.62493026  0.83486361     0.10900
H847        H  0.33963843  0.58589054  0.87756017     0.08500
H848        H  0.37754430  0.66947512  0.91181507     0.08300
O849        O  0.21503882  0.87925569  0.97177806    -0.70700
O850        O  0.28713811  0.87817983  0.53577756    -0.71700
O851        O  0.27966699  0.88394415  0.97597588    -0.60300
O852        O  0.22277096  0.87712721  0.53230672    -0.68700
O853        O  0.22283974  0.82673130  0.53232816    -0.68300
O854        O  0.28163987  0.83363671  0.97634402    -0.59500
O855        O  0.28727111  0.82781490  0.53480505    -0.72000
O856        O  0.21731752  0.82896496  0.97277284    -0.70800
Cu857      Cu  0.25598171  0.87930086  0.50175357     1.04600
Cu858      Cu  0.24756931  0.83005818  0.00660270     1.04300
C859        C  0.20653669  0.85319673  0.96163317     0.95500
C860        C  0.29671261  0.85293534  0.54614925     0.94600
C861        C  0.29152673  0.85915690  0.96671105     0.86800
C862        C  0.21198680  0.85191675  0.54167416     0.93000
O863        O  0.28226642  0.58299854  0.96641337    -0.70700
O864        O  0.20531460  0.60501366  0.52492801    -0.71700
O865        O  0.21810657  0.58443063  0.96151622    -0.60300
O866        O  0.26773875  0.59620355  0.53659963    -0.68700
O867        O  0.27545999  0.64587492  0.53251010    -0.68300
O868        O  0.21864116  0.63483358  0.96144033    -0.59500
O869        O  0.21293759  0.65463605  0.52055707    -0.72000
O870        O  0.28354702  0.63334169  0.96531085    -0.70800
Cu871      Cu  0.24203962  0.59482357  0.49949709     1.04600
Cu872      Cu  0.24891572  0.63640129  0.99555591     1.04300
C873        C  0.29366043  0.60762005  0.95630034     0.95500
C874        C  0.19764353  0.63239531  0.53102143     0.94600
C875        C  0.20853310  0.60953761  0.95103899     0.86800
C876        C  0.27967482  0.62084312  0.54636509     0.93000
C877        C  0.38706767  0.90697499  0.87254937     0.05400
C878        C  0.36127581  0.90714839  0.89159978    -0.10800
C879        C  0.35677738  0.88420527  0.91324799     0.02900
C880        C  0.37891109  0.86159051  0.91630407    -0.09300
C881        C  0.40441854  0.86092416  0.89740325     0.05400
C882        C  0.40850009  0.88385045  0.87583220    -0.08700
H883        H  0.34476275  0.92509351  0.88987807     0.10900
H884        H  0.37659354  0.84440844  0.93357010     0.08500
H885        H  0.42856884  0.88391409  0.86164412     0.08300
C886        C  0.39069996  0.65529732  0.62092319     0.05400
C887        C  0.36550721  0.65846293  0.60199530    -0.10800
C888        C  0.33934156  0.64094036  0.60615774     0.02900
C889        C  0.33793402  0.62023987  0.63021558    -0.09300
C890        C  0.36303617  0.61618421  0.64936019     0.05400
C891        C  0.38943918  0.63404833  0.64470808    -0.08700
H892        H  0.36644453  0.67441991  0.58340074     0.10900
H893        H  0.31755770  0.60677467  0.63368621     0.08500
H894        H  0.40886040  0.63133486  0.65938088     0.08300
C895        C  0.13013728  0.60770202  0.84515958     0.05400
C896        C  0.10626667  0.62848742  0.84388010    -0.10800
C897        C  0.10328255  0.65117193  0.86620339     0.02900
C898        C  0.12447726  0.65268224  0.89025127    -0.09300
C899        C  0.14839501  0.63175632  0.89177355     0.05400
C900        C  0.15138614  0.60993105  0.86857524    -0.08700
H901        H  0.09031888  0.62743416  0.82514439     0.10900
H902        H  0.12279342  0.67031208  0.90744233     0.08500
H903        H  0.17039007  0.59451457  0.86844328     0.08300
C904        C  0.14729919  0.87830738  0.59334040     0.05400
C905        C  0.14483624  0.90114896  0.61543817    -0.10800
C906        C  0.11960306  0.90218935  0.63496739     0.02900
C907        C  0.09608013  0.88078763  0.63102226    -0.09300
C908        C  0.09804009  0.85818258  0.60832575     0.05400
C909        C  0.12357523  0.85721606  0.58954183    -0.08700
H910        H  0.16275074  0.91804511  0.61722103     0.10900
H911        H  0.07628765  0.88185611  0.64554698     0.08500
H912        H  0.12479055  0.84005326  0.57182427     0.08300
C913        C  0.18562079  0.60865656  0.92670324    -0.14200
C914        C  0.17076055  0.63339536  0.91705099    -0.29400
H915        H  0.18022863  0.58646336  0.91715270     0.14800
H916        H  0.17454053  0.65512488  0.92836078     0.15400
C917        C  0.29913235  0.61953562  0.57340719    -0.14200
C918        C  0.31475034  0.64376675  0.58360238    -0.29400
H919        H  0.30266799  0.59742762  0.58346376     0.14800
H920        H  0.31239093  0.66537167  0.57214734     0.15400
C921        C  0.32941836  0.88471815  0.93321281    -0.14200
C922        C  0.31728390  0.85927161  0.94519180    -0.29400
H923        H  0.31882803  0.90645388  0.93782053     0.14800
H924        H  0.32658690  0.83730038  0.93919750     0.15400
C925        C  0.18616724  0.85174721  0.56276205    -0.14200
C926        C  0.17444642  0.87767756  0.57373617    -0.29400
H927        H  0.17636022  0.82996071  0.56892204     0.14800
H928        H  0.18553411  0.89922011  0.56884584     0.15400
C929        C  0.33275088  0.62975603  0.92207743    -0.14200
C930        C  0.31830712  0.60544323  0.93363742    -0.29400
H931        H  0.32733929  0.65222446  0.93078094     0.14800
H932        H  0.32473741  0.58277984  0.92641415     0.15400
C933        C  0.07883980  0.67385033  0.86244629    -0.14200
C934        C  0.06495800  0.68785963  0.88576649    -0.29400
H935        H  0.07129007  0.67839164  0.83944551     0.14800
H936        H  0.07100386  0.68233056  0.90895075     0.15400
C937        C  0.42682534  0.83632139  0.90129099    -0.14200
C938        C  0.44239500  0.82427304  0.87794891    -0.29400
H939        H  0.42923039  0.82663775  0.92375671     0.14800
H940        H  0.43856884  0.83229042  0.85503939     0.15400
C941        C  0.43381810  0.69157949  0.89407923    -0.14200
C942        C  0.42483617  0.67375497  0.87072895    -0.29400
H943        H  0.42424912  0.68833206  0.91649684     0.14800
H944        H  0.43613112  0.67608215  0.84894274     0.15400
C945        C  0.17524508  0.87456160  0.92080069    -0.14200
C946        C  0.18423318  0.85046782  0.93673471    -0.29400
H947        H  0.18487625  0.89678696  0.92613151     0.14800
H948        H  0.17636859  0.82786183  0.93033486     0.15400
C949        C  0.08798123  0.82685118  0.86127054    -0.14200
C950        C  0.07127696  0.81642736  0.88456621    -0.29400
H951        H  0.08182324  0.82006921  0.83827609     0.14800
H952        H  0.07610830  0.82412830  0.90755291     0.15400
C953        C  0.38541433  0.57745281  0.68325761    -0.14200
C954        C  0.36101031  0.59258834  0.67340357    -0.29400
H955        H  0.40760459  0.58270308  0.67391177     0.14800
H956        H  0.33865341  0.58591705  0.68149538     0.15400
C957        C  0.37072141  0.94587493  0.83507349    -0.14200
C958        C  0.39285135  0.93046049  0.84904203    -0.29400
H959        H  0.34718341  0.94194974  0.84124467     0.14800
H960        H  0.41610597  0.93353776  0.84135786     0.15400
C961        C  0.40031473  0.56763745  0.81348185    -0.14200
C962        C  0.37711923  0.57733317  0.83095948    -0.29400
H963        H  0.42312009  0.57651309  0.81694780     0.14800
H964        H  0.35492248  0.56671861  0.82803369     0.15400
C965        C  0.14212535  0.93770366  0.67285202    -0.14200
C966        C  0.11737171  0.92532911  0.65961865    -0.29400
H967        H  0.16460765  0.93057662  0.66592384     0.14800
H968        H  0.09500088  0.93099090  0.66823824     0.15400
C969        C  0.11079742  0.56839004  0.80965855    -0.14200
C970        C  0.13421850  0.58392594  0.82177477    -0.29400
H971        H  0.08773955  0.57316223  0.81687713     0.14800
H972        H  0.15730771  0.57767260  0.81589547     0.15400
C973        C  0.12740298  0.92442074  0.80226983    -0.14200
C974        C  0.14962173  0.91261006  0.81914039    -0.29400
H975        H  0.10406876  0.91695540  0.80541590     0.14800
H976        H  0.17251690  0.92183092  0.81738438     0.15400
C977        C  0.31861837  0.85181533  0.57161999    -0.14200
C978        C  0.32643503  0.87616156  0.58872437    -0.29400
H979        H  0.32709139  0.82956406  0.57737280     0.14800
H980        H  0.31607593  0.89787389  0.58383170     0.15400
C981        C  0.36179033  0.92146911  0.68686037    -0.14200
C982        C  0.38558813  0.93069109  0.70385627    -0.29400
H983        H  0.34054912  0.93373720  0.68845799     0.14800
H984        H  0.40749179  0.91999299  0.70091875     0.15400
C985        C  0.07386927  0.83516401  0.60345563    -0.14200
C986        C  0.05839620  0.82286639  0.62649776    -0.29400
H987        H  0.07060495  0.82620859  0.58059681     0.14800
H988        H  0.06308824  0.83012611  0.64967695     0.15400
C989        C  0.41763416  0.67477737  0.61455440    -0.14200
C990        C  0.43769967  0.68333798  0.63587199    -0.29400
H991        H  0.41914222  0.68513650  0.59229216     0.14800
H992        H  0.43546734  0.67496737  0.65884911     0.15400
C993        C  0.41277972  0.82753541  0.64754457    -0.14200
C994        C  0.42535660  0.81320562  0.62367785    -0.29400
H995        H  0.42187149  0.82354715  0.67008637     0.14800
H996        H  0.41768900  0.81828147  0.60090580     0.15400
C997        C  0.17182946  0.63878454  0.55145277    -0.14200
C998        C  0.15652012  0.61624210  0.56495239    -0.29400
H999        H  0.16755994  0.66221574  0.55790107     0.14800
H1000       H  0.16222555  0.59291704  0.55924298     0.15400
C1001       C  0.12731186  0.58015910  0.66544181    -0.14200
C1002       C  0.10480471  0.56703955  0.68113294    -0.29400
H1003       H  0.15050840  0.57256568  0.66862701     0.14800
H1004       H  0.08133208  0.57289203  0.67661045     0.15400
C1005       C  0.06557993  0.69075685  0.60442408    -0.14200
C1006       C  0.07653979  0.67330315  0.62669374    -0.29400
H1007       H  0.07305508  0.68732444  0.58123201     0.14800
H1008       H  0.06758324  0.67637757  0.64948328     0.15400
C1009       C  0.62395033  0.11098547  0.14925624     0.05400
C1010       C  0.60106902  0.13266361  0.15016568    -0.10800
C1011       C  0.59769381  0.15357332  0.12683539     0.02900
C1012       C  0.61781134  0.15273436  0.10202230    -0.09300
C1013       C  0.64073471  0.13069109  0.10048101     0.05400
C1014       C  0.64383187  0.11000082  0.12443637    -0.08700
H1015       H  0.58554405  0.13315024  0.16926568     0.10900
H1016       H  0.61592922  0.16922663  0.08406963     0.08500
H1017       H  0.66149890  0.09312657  0.12377460     0.08300
O1018       O  0.52380885  0.22578692  0.08958756    -0.70700
O1019       O  0.96429278  0.29088315  0.10723579    -0.71700
O1020       O  0.52619577  0.28868211  0.10328648    -0.60300
O1021       O  0.95995894  0.22797584  0.09174510    -0.68700
O1022       O  0.96054458  0.21650572  0.14065482    -0.68300
O1023       O  0.52617662  0.27937138  0.15273792    -0.59500
O1024       O  0.96458037  0.27955913  0.15621332    -0.72000
O1025       O  0.52478655  0.21663675  0.13902494    -0.70800
Cu1026     Cu  0.99424403  0.25816423  0.09692430     1.04600
Cu1027     Cu  0.49335434  0.24821623  0.14820385     1.04300
C1028       C  0.53461874  0.21151915  0.11214861     0.95500
C1029       C  0.95531131  0.29593214  0.13441392     0.94600
C1030       C  0.53646423  0.29389292  0.13002949     0.86800
C1031       C  0.94953601  0.21268378  0.11396980     0.93000
C1032       C  0.89847280  0.36064330  0.12452526     0.05400
C1033       C  0.87473340  0.36289147  0.10377172    -0.10800
C1034       C  0.85140771  0.38399723  0.10800303     0.02900
C1035       C  0.85324931  0.40459396  0.13258413    -0.09300
C1036       C  0.87760519  0.40315899  0.15348017     0.05400
C1037       C  0.89990215  0.38081385  0.14933057    -0.08700
H1038       H  0.87459689  0.34792830  0.08412245     0.10900
H1039       H  0.83597612  0.42174788  0.13498514     0.08500
H1040       H  0.91881375  0.37964092  0.16501306     0.08300
O1041       O  0.64871227  0.47023636  0.28474043    -0.70700
O1042       O  0.67081208  0.03840013  0.21743159    -0.71700
O1043       O  0.66501696  0.03327774  0.28159125    -0.60300
O1044       O  0.65913246  0.46829125  0.22115793    -0.68700
O1045       O  0.60930428  0.46766457  0.21355516    -0.68300
O1046       O  0.61494663  0.03706615  0.27770058    -0.59500
O1047       O  0.62063433  0.04112641  0.21414126    -0.72000
O1048       O  0.59891988  0.47011111  0.27676146    -0.70800
Cu1049     Cu  0.66721861  0.00374454  0.24679559     1.04600
Cu1050     Cu  0.60277793  0.50097513  0.24437461     1.04300
C1051       C  0.62205584  0.46019155  0.29075323     0.95500
C1052       C  0.64699652  0.05027939  0.20622865     0.94600
C1053       C  0.63999595  0.04469323  0.29048201     0.86800
C1054       C  0.63578394  0.45762965  0.20743459     0.93000
O1055       O  0.85654557  0.03593862  0.27488875    -0.70700
O1056       O  0.84313473  0.47881066  0.22768743    -0.71700
O1057       O  0.84640971  0.47863610  0.29246257    -0.60300
O1058       O  0.86127219  0.02995222  0.21041994    -0.68700
O1059       O  0.91136440  0.02770482  0.21477024    -0.68300
O1060       O  0.89570633  0.46908769  0.29023655    -0.59500
O1061       O  0.89251026  0.46968048  0.22529421    -0.72000
O1062       O  0.90662442  0.03237952  0.27865762    -0.70800
Cu1063     Cu  0.84933801  0.51075651  0.26028819     1.04600
Cu1064     Cu  0.90834193  0.99775558  0.24939785     1.04300
C1065       C  0.88188218  0.04509975  0.28624035     0.95500
C1066       C  0.86540608  0.46446079  0.21601774     0.94600
C1067       C  0.86943584  0.46377775  0.30152842     0.86800
C1068       C  0.88771276  0.03857650  0.20209304     0.93000
C1069       C  0.60899284  0.35611623  0.37106417     0.05400
C1070       C  0.61289609  0.37865914  0.34913560    -0.10800
C1071       C  0.63567756  0.40098035  0.35240990     0.02900
C1072       C  0.65531085  0.39995694  0.37726332    -0.09300
C1073       C  0.65254790  0.37708209  0.39889591     0.05400
C1074       C  0.62906639  0.35525764  0.39600005    -0.08700
H1075       H  0.59813095  0.37863140  0.32946440     0.10900
H1076       H  0.67318347  0.41692485  0.37958611     0.08500
H1077       H  0.62661063  0.33766083  0.41282202     0.08300
O1078       O  0.97269430  0.27970059  0.33706963    -0.70700
O1079       O  0.53254779  0.22591997  0.35806039    -0.71700
O1080       O  0.96909733  0.21504952  0.33288844    -0.60300
O1081       O  0.53652973  0.29004828  0.35717586    -0.68700
O1082       O  0.52629550  0.29174869  0.40645004    -0.68300
O1083       O  0.96374220  0.21227302  0.38282612    -0.59500
O1084       O  0.52308376  0.22760040  0.40750026    -0.72000
O1085       O  0.96655684  0.27712927  0.38696499    -0.70800
Cu1086     Cu  0.50329278  0.25905753  0.34907908     1.04600
Cu1087     Cu  0.99702947  0.24304149  0.39038521     1.04300
C1088       C  0.96026235  0.28925067  0.36141477     0.95500
C1089       C  0.53735551  0.21632123  0.38489563     0.94600
C1090       C  0.95583483  0.20382031  0.35611061     0.86800
C1091       C  0.54229609  0.30025981  0.38388935     0.93000
C1092       C  0.88920800  0.14784647  0.37259483     0.05400
C1093       C  0.88673777  0.12691729  0.34828851    -0.10800
C1094       C  0.86253349  0.10568917  0.34703846     0.02900
C1095       C  0.84060686  0.10590631  0.37009966    -0.09300
C1096       C  0.84307302  0.12608410  0.39490815     0.05400
C1097       C  0.86733026  0.14698537  0.39581558    -0.08700
H1098       H  0.90358931  0.12702644  0.33048684     0.10900
H1099       H  0.82165348  0.09014740  0.36862766     0.08500
H1100       H  0.86918100  0.16273943  0.41479347     0.08300
O1101       O  0.72092694  0.37763524  0.46910519    -0.70700
O1102       O  0.78214213  0.38319018  0.03656529    -0.71700
O1103       O  0.78568258  0.37784083  0.47099314    -0.60300
O1104       O  0.71800828  0.37870551  0.03463890    -0.68700
O1105       O  0.72036839  0.32839198  0.03553285    -0.68300
O1106       O  0.78483063  0.32746940  0.47086694    -0.59500
O1107       O  0.78435341  0.33286788  0.03724930    -0.72000
O1108       O  0.72027643  0.32725479  0.46901926    -0.70800
Cu1109     Cu  0.75075249  0.38154835  0.00319340     1.04600
Cu1110     Cu  0.75146580  0.32587462  0.50205463     1.04300
C1111       C  0.71033987  0.35233846  0.45898234     0.95500
C1112       C  0.79288048  0.35876050  0.04753182     0.94600
C1113       C  0.79561458  0.35250810  0.46093096     0.86800
C1114       C  0.70881984  0.35321747  0.04494155     0.93000
O1115       O  0.77018643  0.07733148  0.46230058    -0.70700
O1116       O  0.70873396  0.08072537  0.02918872    -0.71700
O1117       O  0.70587832  0.07888047  0.46401118    -0.60300
O1118       O  0.77314821  0.08155170  0.02838306    -0.68700
O1119       O  0.77337842  0.13189665  0.02966192    -0.68300
O1120       O  0.70749173  0.12926053  0.46478365    -0.59500
O1121       O  0.70830608  0.13109356  0.02939561    -0.72000
O1122       O  0.77227463  0.12766538  0.46374769    -0.70800
Cu1123     Cu  0.74067034  0.07939014  0.99649940     1.04600
Cu1124     Cu  0.74054305  0.12965770  0.49659555     1.04300
C1125       C  0.78124898  0.10237641  0.45266369     0.95500
C1126       C  0.69850930  0.10579931  0.03960367     0.94600
C1127       C  0.69636279  0.10431226  0.45441962     0.86800
C1128       C  0.78361948  0.10653311  0.03913465     0.93000
C1129       C  0.88301260  0.39795463  0.35828202     0.05400
C1130       C  0.85918526  0.39840374  0.37973265    -0.10800
C1131       C  0.85627654  0.37538114  0.40152848     0.02900
C1132       C  0.87804662  0.35226199  0.40232349    -0.09300
C1133       C  0.90170787  0.35117982  0.38119335     0.05400
C1134       C  0.90418725  0.37424565  0.35937676    -0.08700
H1135       H  0.84302658  0.41674361  0.37996040     0.10900
H1136       H  0.87700272  0.33505881  0.41967344     0.08500
H1137       H  0.92290745  0.37416590  0.34347747     0.08300
C1138       C  0.89144589  0.14687788  0.12461803     0.05400
C1139       C  0.86879953  0.14886540  0.10200947    -0.10800
C1140       C  0.84630746  0.12611671  0.09883241     0.02900
C1141       C  0.84633809  0.10157645  0.11920080    -0.09300
C1142       C  0.86884744  0.09902385  0.14162725     0.05400
C1143       C  0.89116582  0.12188971  0.14421749    -0.08700
H1144       H  0.86819701  0.16824374  0.08712345     0.10900
H1145       H  0.82849826  0.08455520  0.11819644     0.08500
H1146       H  0.90799235  0.12080844  0.16209935     0.08300
C1147       C  0.61646723  0.10637211  0.34833087     0.05400
C1148       C  0.59501309  0.12957867  0.34728270    -0.10800
C1149       C  0.59441639  0.15243626  0.36959275     0.02900
C1150       C  0.61578505  0.15210371  0.39331451    -0.09300
C1151       C  0.63718942  0.12877305  0.39508018     0.05400
C1152       C  0.63743129  0.10600289  0.37241474    -0.08700
H1153       H  0.57876843  0.13000922  0.32877700     0.10900
H1154       H  0.61610429  0.17013107  0.41020505     0.08500
H1155       H  0.65405529  0.08817962  0.37339079     0.08300
C1156       C  0.64715015  0.37581324  0.10215770     0.05400
C1157       C  0.64499398  0.39731893  0.12572628    -0.10800
C1158       C  0.62005907  0.39692181  0.14570568     0.02900
C1159       C  0.59711094  0.37501061  0.14149472    -0.09300
C1160       C  0.59896579  0.35354039  0.11781370     0.05400
C1161       C  0.62372896  0.35435080  0.09806494    -0.08700
H1162       H  0.66251253  0.41457880  0.12801808     0.10900
H1163       H  0.57753927  0.37508596  0.15636287     0.08500
H1164       H  0.62445129  0.33834278  0.07927252     0.08300
C1165       C  0.67264684  0.10405377  0.43081122    -0.14200
C1166       C  0.65993323  0.12940868  0.42003463    -0.29400
H1167       H  0.66539823  0.08197603  0.42224331     0.14800
H1168       H  0.66592676  0.15124838  0.43015048     0.15400
C1169       C  0.80754001  0.10487028  0.06280251    -0.14200
C1170       C  0.82238982  0.12905567  0.07482742    -0.29400
H1171       H  0.81355635  0.08221440  0.06997759     0.14800
H1172       H  0.81763212  0.15152375  0.06614942     0.15400
C1173       C  0.83105738  0.37653331  0.42407833    -0.14200
C1174       C  0.81988862  0.35155668  0.43780625    -0.29400
H1175       H  0.82099250  0.39845502  0.42902001     0.14800
H1176       H  0.82832032  0.32928460  0.43162568     0.15400
C1177       C  0.68425748  0.35197374  0.06745873    -0.14200
C1178       C  0.67326593  0.37700360  0.08106556    -0.29400
H1179       H  0.67508402  0.32974504  0.07298052     0.14800
H1180       H  0.68400047  0.39890668  0.07705875     0.15400
C1181       C  0.82013112  0.12648038  0.41973218    -0.14200
C1182       C  0.80432155  0.10165002  0.42828109    -0.29400
H1183       H  0.81693021  0.14769893  0.43204686     0.14800
H1184       H  0.80877572  0.07984201  0.41760787     0.15400
C1185       C  0.57213706  0.17712382  0.36628558    -0.14200
C1186       C  0.55971543  0.19212067  0.38983917    -0.29400
H1187       H  0.56462870  0.18216878  0.34338159     0.14800
H1188       H  0.56545285  0.18616538  0.41299180     0.15400
C1189       C  0.92388257  0.32599730  0.38335992    -0.14200
C1190       C  0.93878822  0.31473337  0.35924617    -0.29400
H1191       H  0.92682233  0.31533699  0.40530537     0.14800
H1192       H  0.93486392  0.32406797  0.33688157     0.15400
C1193       C  0.93120275  0.18089639  0.35185316    -0.14200
C1194       C  0.91477609  0.17022641  0.37538670    -0.29400
H1195       H  0.92609344  0.17345187  0.32885812     0.14800
H1196       H  0.91945167  0.17929062  0.39795810     0.15400
C1197       C  0.67476725  0.37711528  0.42411340    -0.14200
C1198       C  0.68625873  0.35160895  0.43566233    -0.29400
H1199       H  0.68393724  0.39894244  0.43154322     0.14800
H1200       H  0.67838891  0.32962363  0.42734519     0.15400
C1201       C  0.58427277  0.33339242  0.36641217    -0.14200
C1202       C  0.56780424  0.32176922  0.38925456    -0.29400
H1203       H  0.57803121  0.32770599  0.34315813     0.14800
H1204       H  0.57268482  0.32865061  0.41250115     0.15400
C1205       C  0.89107986  0.06207297  0.17839733    -0.14200
C1206       C  0.86695941  0.07344510  0.16351107    -0.29400
H1207       H  0.91377601  0.07054660  0.17367800     0.14800
H1208       H  0.84465700  0.06348211  0.16737401     0.15400
C1209       C  0.86492734  0.44042807  0.32525334    -0.14200
C1210       C  0.88727439  0.42217152  0.33499666    -0.29400
H1211       H  0.84213018  0.43782032  0.33416536     0.14800
H1212       H  0.90954673  0.42424629  0.32459391     0.15400
C1213       C  0.88376652  0.07033739  0.30852690    -0.14200
C1214       C  0.85952719  0.08265185  0.32219728    -0.29400
H1215       H  0.90640981  0.07762236  0.31528595     0.14800
H1216       H  0.83704036  0.07372503  0.31690354     0.15400
C1217       C  0.63997164  0.43392161  0.18399152    -0.14200
C1218       C  0.61640101  0.42001577  0.17013317    -0.29400
H1219       H  0.66307081  0.42775160  0.17822335     0.14800
H1220       H  0.59345216  0.42514963  0.17748316     0.15400
C1221       C  0.64064406  0.06703692  0.31559849    -0.14200
C1222       C  0.61597582  0.08275177  0.32403637    -0.29400
H1223       H  0.66241912  0.07148993  0.32634391     0.14800
H1224       H  0.59486779  0.07928331  0.31162480     0.15400
C1225       C  0.61734481  0.43657256  0.31360445    -0.14200
C1226       C  0.64027939  0.42511773  0.32974780    -0.29400
H1227       H  0.59425653  0.42858886  0.31723536     0.14800
H1228       H  0.66301725  0.43451679  0.32714545     0.15400
C1229       C  0.81580666  0.35948583  0.07186113    -0.14200
C1230       C  0.82574864  0.38494326  0.08603243    -0.29400
H1231       H  0.82502533  0.33766437  0.07821724     0.14800
H1232       H  0.81506889  0.40655774  0.08145742     0.15400
C1233       C  0.88182784  0.42537101  0.17892680    -0.14200
C1234       C  0.85948270  0.44208381  0.19130079    -0.29400
H1235       H  0.90457340  0.42761297  0.18832179     0.14800
H1236       H  0.83628359  0.43940348  0.18338032     0.15400
C1237       C  0.57486920  0.33056930  0.11247985    -0.14200
C1238       C  0.56009853  0.31709518  0.13533477    -0.29400
H1239       H  0.57043196  0.32331593  0.08923043     0.14800
H1240       H  0.56592604  0.32271206  0.15870073     0.15400
C1241       C  0.91512415  0.17086293  0.12963895    -0.14200
C1242       C  0.92473090  0.19035616  0.10825190    -0.29400
H1243       H  0.92622436  0.17149461  0.15168876     0.14800
H1244       H  0.91523998  0.18922715  0.08553561     0.15400
C1245       C  0.92176136  0.33731208  0.11882943    -0.14200
C1246       C  0.93416521  0.32090320  0.14105273    -0.29400
H1247       H  0.92679410  0.33162242  0.09531784     0.14800
H1248       H  0.92791454  0.32517113  0.16454052     0.15400
C1249       C  0.67569880  0.10523094  0.06410541    -0.14200
C1250       C  0.66200783  0.13056284  0.07434527    -0.29400
H1251       H  0.67019910  0.08336189  0.07392826     0.14800
H1252       H  0.66621149  0.15196726  0.06296240     0.15400
C1253       C  0.62449983  0.08834229  0.17362860    -0.14200
C1254       C  0.64956882  0.07421428  0.18327617    -0.29400
H1255       H  0.60288680  0.08348199  0.18453452     0.14800
H1256       H  0.67173694  0.07981078  0.17404254     0.15400
C1257       C  0.55910408  0.18943445  0.10692376    -0.14200
C1258       C  0.57331411  0.17626704  0.13023362    -0.29400
H1259       H  0.56554173  0.18419014  0.08370125     0.14800
H1260       H  0.56574686  0.18127175  0.15321046     0.15400
C1261       C  0.62163144  0.10813169  0.64830094     0.05400
C1262       C  0.60002271  0.13109644  0.64972168    -0.10800
C1263       C  0.59846948  0.15330625  0.62736669     0.02900
C1264       C  0.61910581  0.15237510  0.60295368    -0.09300
C1265       C  0.64073709  0.12907974  0.60080456     0.05400
C1266       C  0.64202727  0.10714990  0.62385046    -0.08700
H1267       H  0.58409733  0.13161538  0.66848437     0.10900
H1268       H  0.61861579  0.16973704  0.58574214     0.08500
H1269       H  0.65870479  0.08932434  0.62278092     0.08300
O1270       O  0.52648510  0.22754624  0.59036745    -0.70700
O1271       O  0.95646463  0.28135378  0.60295717    -0.71700
O1272       O  0.52468801  0.29096775  0.60179377    -0.60300
O1273       O  0.96224843  0.21701109  0.60416835    -0.68700
O1274       O  0.96313547  0.21842718  0.65453225    -0.68300
O1275       O  0.52550147  0.28335432  0.65152709    -0.59500
O1276       O  0.95576573  0.28288367  0.65330722    -0.72000
O1277       O  0.52822906  0.21986258  0.64004348    -0.70800
Cu1278     Cu  0.99135594  0.25293409  0.60156428     1.04600
Cu1279     Cu  0.49477705  0.24974029  0.64829798     1.04300
C1280       C  0.53797130  0.21427942  0.61321099     0.95500
C1281       C  0.94518331  0.29140179  0.62765772     0.94600
C1282       C  0.53477605  0.29773432  0.62827245     0.86800
C1283       C  0.95374628  0.20640511  0.62981949     0.93000
C1284       C  0.88368758  0.35167527  0.64491853     0.05400
C1285       C  0.86390701  0.35160831  0.61970964    -0.10800
C1286       C  0.84229280  0.37469009  0.61601075     0.02900
C1287       C  0.84072243  0.39802741  0.63784022    -0.09300
C1288       C  0.86009629  0.39852023  0.66312933     0.05400
C1289       C  0.88110745  0.37488055  0.66678890    -0.08700
H1290       H  0.86546897  0.33373066  0.60291187     0.10900
H1291       H  0.82447912  0.41612620  0.63498765     0.08500
H1292       H  0.89577342  0.37455744  0.68651891     0.08300
O1293       O  0.65768983  0.46108955  0.77988183    -0.70700
O1294       O  0.66439982  0.03120244  0.71436773    -0.71700
O1295       O  0.66020771  0.02579728  0.77878417    -0.60300
O1296       O  0.66360131  0.46752240  0.71635267    -0.68700
O1297       O  0.61352183  0.47082048  0.71205191    -0.68300
O1298       O  0.61029004  0.03158055  0.77645298    -0.59500
O1299       O  0.61441998  0.03677023  0.71237145    -0.72000
O1300       O  0.60760603  0.46473110  0.77558547    -0.70800
Cu1301     Cu  0.65984093  0.99649496  0.74348557     1.04600
Cu1302     Cu  0.61123590  0.49989294  0.74782412     1.04300
C1303       C  0.63092207  0.45187804  0.78653092     0.95500
C1304       C  0.64106449  0.04458211  0.70391640     0.94600
C1305       C  0.63595836  0.03801793  0.78872796     0.86800
C1306       C  0.63887147  0.45992343  0.70312595     0.93000
O1307       O  0.85980799  0.04550466  0.77707771    -0.70700
O1308       O  0.85633336  0.47390036  0.72866759    -0.71700
O1309       O  0.85158655  0.48042682  0.79289581    -0.60300
O1310       O  0.86421270  0.03870917  0.71257783    -0.68700
O1311       O  0.91422203  0.03526355  0.71681782    -0.68300
O1312       O  0.90153016  0.47578110  0.79702528    -0.59500
O1313       O  0.90636719  0.47031302  0.73309085    -0.72000
O1314       O  0.90978601  0.04103238  0.78100206    -0.70800
Cu1315     Cu  0.85535934  0.50947170  0.75828754     1.04600
Cu1316     Cu  0.91050379  0.00590920  0.75198611     1.04300
C1317       C  0.88524615  0.05425662  0.78846701     0.95500
C1318       C  0.88133358  0.46093676  0.72172124     0.94600
C1319       C  0.87464106  0.46870905  0.80566532     0.86800
C1320       C  0.89083088  0.04619994  0.70372086     0.93000
C1321       C  0.61498205  0.34816161  0.86605202     0.05400
C1322       C  0.62084969  0.36884189  0.84280781    -0.10800
C1323       C  0.64401436  0.39070623  0.84587698     0.02900
C1324       C  0.66229261  0.39087476  0.87176357    -0.09300
C1325       C  0.65746965  0.36983518  0.89486838     0.05400
C1326       C  0.63355440  0.34850878  0.89214541    -0.08700
H1327       H  0.60698341  0.36810619  0.82247954     0.10900
H1328       H  0.68031481  0.40768615  0.87404463     0.08500
H1329       H  0.62942933  0.33242374  0.91012939     0.08300
O1330       O  0.97765891  0.28560065  0.84585805    -0.70700
O1331       O  0.53360336  0.22314973  0.85362417    -0.71700
O1332       O  0.97322477  0.22105806  0.84347614    -0.60300
O1333       O  0.53873820  0.28718621  0.85287158    -0.68700
O1334       O  0.52877198  0.28930335  0.90219775    -0.68300
O1335       O  0.96344457  0.22032322  0.89284686    -0.59500
O1336       O  0.52438081  0.22527149  0.90308731    -0.72000
O1337       O  0.96807796  0.28481852  0.89527771    -0.70800
Cu1338     Cu  0.50482540  0.25717005  0.84496161     1.04600
Cu1339     Cu  0.99696932  0.25071036  0.90227209     1.04300
C1340       C  0.96372903  0.29611964  0.86903493     0.95500
C1341       C  0.53844214  0.21363481  0.88051334     0.94600
C1342       C  0.95769001  0.21111870  0.86576724     0.86800
C1343       C  0.54492442  0.29722033  0.87953968     0.93000
C1344       C  0.88944934  0.15614714  0.87693508     0.05400
C1345       C  0.88851120  0.13536148  0.85233813    -0.10800
C1346       C  0.86452791  0.11399784  0.84962962     0.02900
C1347       C  0.84155979  0.11373891  0.87164287    -0.09300
C1348       C  0.84260227  0.13379702  0.89657163     0.05400
C1349       C  0.86631965  0.15507313  0.89877898    -0.08700
H1350       H  0.90631670  0.13564196  0.83550689     0.10900
H1351       H  0.82291062  0.09768035  0.86937019     0.08500
H1352       H  0.86698208  0.17068645  0.91794868     0.08300
O1353       O  0.71937491  0.37611486  0.97026612    -0.70700
O1354       O  0.78344735  0.37792324  0.53612404    -0.71700
O1355       O  0.78388572  0.38102186  0.97163992    -0.60300
O1356       O  0.71907465  0.37852334  0.53318772    -0.68700
O1357       O  0.71801285  0.32813336  0.53295915    -0.68300
O1358       O  0.78618894  0.33073967  0.97281080    -0.59500
O1359       O  0.78240003  0.32754823  0.53545755    -0.72000
O1360       O  0.72191169  0.32584909  0.97153404    -0.70800
Cu1361     Cu  0.75241228  0.37976648  0.50232190     1.04600
Cu1362     Cu  0.75336766  0.32774220  0.00432685     1.04300
C1363       C  0.71063312  0.34996237  0.96061421     0.95500
C1364       C  0.79231780  0.35253077  0.54670624     0.94600
C1365       C  0.79539415  0.35611618  0.96224958     0.86800
C1366       C  0.70777277  0.35350669  0.54254094     0.93000
O1367       O  0.77250514  0.08185110  0.96384030    -0.70700
O1368       O  0.70703241  0.07807992  0.52842803    -0.71700
O1369       O  0.70827913  0.08020316  0.96452870    -0.60300
O1370       O  0.77126815  0.07576486  0.52682099    -0.68700
O1371       O  0.77344365  0.12611462  0.52823716    -0.68300
O1372       O  0.70747572  0.13053765  0.96443814    -0.59500
O1373       O  0.70874574  0.12843521  0.52939267    -0.72000
O1374       O  0.77223638  0.13222478  0.96477356    -0.70800
Cu1375     Cu  0.73851170  0.07579449  0.49533679     1.04600
Cu1376     Cu  0.74030410  0.13324275  0.99710454     1.04300
C1377       C  0.78232849  0.10727923  0.95396348     0.95500
C1378       C  0.69796177  0.10340470  0.53934009     0.94600
C1379       C  0.69779549  0.10491750  0.95410297     0.86800
C1380       C  0.78274838  0.10033176  0.53742923     0.93000
C1381       C  0.88629236  0.40460518  0.86401847     0.05400
C1382       C  0.86146105  0.40452720  0.88429508    -0.10800
C1383       C  0.85745106  0.38081186  0.90514144     0.02900
C1384       C  0.87909886  0.35758445  0.90612289    -0.09300
C1385       C  0.90368437  0.35710909  0.88604550     0.05400
C1386       C  0.90727671  0.38081260  0.86520989    -0.08700
H1387       H  0.84540524  0.42296967  0.88430150     0.10900
H1388       H  0.87731446  0.33986423  0.92288483     0.08500
H1389       H  0.92668671  0.38114353  0.85016071     0.08300
C1390       C  0.89628334  0.14272714  0.61039463     0.05400
C1391       C  0.87267196  0.14205588  0.58912046    -0.10800
C1392       C  0.84889078  0.12094768  0.59131767     0.02900
C1393       C  0.84894692  0.09999030  0.61522805    -0.09300
C1394       C  0.87277454  0.09965700  0.63650787     0.05400
C1395       C  0.89647987  0.12120947  0.63394218    -0.08700
H1396       H  0.87245751  0.15858208  0.57103258     0.10900
H1397       H  0.83014694  0.08421555  0.61775457     0.08500
H1398       H  0.91467834  0.12165903  0.65042361     0.08300
C1399       C  0.61611861  0.10107642  0.84720065     0.05400
C1400       C  0.59498196  0.12459612  0.84553060    -0.10800
C1401       C  0.59495479  0.14840407  0.86680396     0.02900
C1402       C  0.61665221  0.14872500  0.89024823    -0.09300
C1403       C  0.63797548  0.12528917  0.89277115     0.05400
C1404       C  0.63762190  0.10146227  0.87099555    -0.08700
H1405       H  0.57844265  0.12451440  0.82726998     0.10900
H1406       H  0.61732388  0.16745824  0.90634428     0.08500
H1407       H  0.65407315  0.08348789  0.87238086     0.08300
C1408       C  0.64436698  0.37955820  0.59655917     0.05400
C1409       C  0.64247551  0.40197657  0.61925331    -0.10800
C1410       C  0.61787670  0.40240974  0.63966253     0.02900
C1411       C  0.59460133  0.38063726  0.63633032    -0.09300
C1412       C  0.59599630  0.35837345  0.61328423     0.05400
C1413       C  0.62070357  0.35822081  0.59335450    -0.08700
H1414       H  0.66026261  0.41903051  0.62081431     0.10900
H1415       H  0.57534907  0.38120168  0.65159479     0.08500
H1416       H  0.62134778  0.34141431  0.57527221     0.08300
C1417       C  0.67469229  0.10292834  0.92960129    -0.14200
C1418       C  0.66100475  0.12729236  0.91768754    -0.29400
H1419       H  0.66863925  0.08035579  0.92144941     0.14800
H1420       H  0.66608640  0.14959417  0.92725152     0.15400
C1421       C  0.80695196  0.09834168  0.56046861    -0.14200
C1422       C  0.82365228  0.12258227  0.56905696    -0.29400
H1423       H  0.81188912  0.07609796  0.56954183     0.14800
H1424       H  0.81973476  0.14425116  0.55818611     0.15400
C1425       C  0.83133267  0.38134899  0.92666144    -0.14200
C1426       C  0.81983631  0.35596947  0.93933296    -0.29400
H1427       H  0.82118166  0.40313858  0.93200346     0.14800
H1428       H  0.82854330  0.33390077  0.93282332     0.15400
C1429       C  0.68219007  0.35355788  0.56404262    -0.14200
C1430       C  0.67092738  0.37934322  0.57593775    -0.29400
H1431       H  0.67235568  0.33175306  0.57008250     0.14800
H1432       H  0.68207150  0.40089432  0.57122445     0.15400
C1433       C  0.81904071  0.13328369  0.92056629    -0.14200
C1434       C  0.80532626  0.10752292  0.92966057    -0.29400
H1435       H  0.81408428  0.15451754  0.93221938     0.14800
H1436       H  0.81157570  0.08589121  0.91956715     0.15400
C1437       C  0.57286991  0.17332541  0.86269292    -0.14200
C1438       C  0.56066244  0.18923260  0.88579226    -0.29400
H1439       H  0.56525951  0.17771928  0.83968166     0.14800
H1440       H  0.56650918  0.18386604  0.90906941     0.15400
C1441       C  0.92579245  0.33204169  0.88860386    -0.14200
C1442       C  0.94257258  0.32163702  0.86530234    -0.29400
H1443       H  0.92721998  0.32073019  0.91037684     0.14800
H1444       H  0.94035184  0.33144232  0.84291178     0.15400
C1445       C  0.93307493  0.18873021  0.85969565    -0.14200
C1446       C  0.91470326  0.17844027  0.88177584    -0.29400
H1447       H  0.92981415  0.18117626  0.83640926     0.14800
H1448       H  0.91765598  0.18755417  0.90461358     0.15400
C1449       C  0.67758980  0.37172523  0.92170018    -0.14200
C1450       C  0.68756384  0.34725060  0.93641856    -0.29400
H1451       H  0.68683349  0.39395293  0.92767815     0.14800
H1452       H  0.67997616  0.32469762  0.92951036     0.15400
C1453       C  0.58935090  0.32652253  0.86187943    -0.14200
C1454       C  0.57118865  0.31772391  0.88467856    -0.29400
H1455       H  0.58393315  0.31936888  0.83880655     0.14800
H1456       H  0.57546403  0.32591265  0.90762942     0.15400
C1457       C  0.89468303  0.06785707  0.67833105    -0.14200
C1458       C  0.87077914  0.07772920  0.66207328    -0.29400
H1459       H  0.91753635  0.07529146  0.67277551     0.14800
H1460       H  0.84837382  0.06860733  0.66719241     0.15400
C1461       C  0.86938385  0.44649099  0.83016355    -0.14200
C1462       C  0.89162308  0.42925023  0.84160057    -0.29400
H1463       H  0.84609723  0.44298971  0.83740953     0.14800
H1464       H  0.91445828  0.43189055  0.83262273     0.15400
C1465       C  0.88711971  0.07946329  0.81083816    -0.14200
C1466       C  0.86256618  0.09133825  0.82437551    -0.29400
H1467       H  0.90965135  0.08685897  0.81784729     0.14800
H1468       H  0.84028130  0.08219022  0.81858346     0.15400
C1469       C  0.64043659  0.43822031  0.67748983    -0.14200
C1470       C  0.61576204  0.42541215  0.66450118    -0.29400
H1471       H  0.66295172  0.43158592  0.67016161     0.14800
H1472       H  0.59342275  0.43065184  0.67347277     0.15400
C1473       C  0.63820687  0.06002748  0.81434648    -0.14200
C1474       C  0.61437758  0.07660060  0.82361767    -0.29400
H1475       H  0.66038274  0.06374803  0.82453863     0.14800
H1476       H  0.59283967  0.07358963  0.81185049     0.15400
C1477       C  0.62630688  0.42640859  0.80722934    -0.14200
C1478       C  0.64925475  0.41417509  0.82275997    -0.29400
H1479       H  0.60312611  0.41875782  0.81100888     0.14800
H1480       H  0.67207203  0.42345265  0.82041603     0.15400
C1481       C  0.81387531  0.35128802  0.57238724    -0.14200
C1482       C  0.82172834  0.37585797  0.58912247    -0.29400
H1483       H  0.82201366  0.32901790  0.57852961     0.14800
H1484       H  0.81163897  0.39757437  0.58371070     0.15400
C1485       C  0.85800495  0.42420010  0.68519586    -0.14200
C1486       C  0.88229043  0.43475193  0.70061482    -0.29400
H1487       H  0.83646554  0.43585001  0.68738946     0.14800
H1488       H  0.90431376  0.42447018  0.69700975     0.15400
C1489       C  0.57188171  0.33508044  0.60910394    -0.14200
C1490       C  0.55730040  0.32233221  0.63254699    -0.29400
H1491       H  0.56766164  0.32656511  0.58623654     0.14800
H1492       H  0.56293877  0.32914619  0.65564481     0.15400
C1493       C  0.91978978  0.16691653  0.60761149    -0.14200
C1494       C  0.93281476  0.18017838  0.63191411    -0.29400
H1495       H  0.92440741  0.17592935  0.58518743     0.14800
H1496       H  0.92690306  0.17254465  0.65452911     0.15400
C1497       C  0.90755967  0.32810888  0.64886656    -0.14200
C1498       C  0.91999964  0.31322991  0.62521336    -0.29400
H1499       H  0.91646292  0.32433179  0.67152094     0.14800
H1500       H  0.91269603  0.31830385  0.60231295     0.15400
C1501       C  0.67523037  0.10327689  0.56400843    -0.14200
C1502       C  0.66247113  0.12884527  0.57493765    -0.29400
H1503       H  0.66878678  0.08137746  0.57318632     0.14800
H1504       H  0.66764736  0.15037161  0.56417877     0.15400
C1505       C  0.62054546  0.08451863  0.67186535    -0.14200
C1506       C  0.64471715  0.06878233  0.68130328    -0.29400
H1507       H  0.59863627  0.08049434  0.68250751     0.14800
H1508       H  0.66718537  0.07346779  0.67230001     0.15400
C1509       C  0.56263039  0.19230919  0.60812659    -0.14200
C1510       C  0.57518927  0.17717375  0.63118187    -0.29400
H1511       H  0.56977794  0.18793323  0.58494409     0.14800
H1512       H  0.56663840  0.18108002  0.65401439     0.15400
C1513       C  0.61484716  0.60221327  0.14740439     0.05400
C1514       C  0.59353012  0.62545525  0.14878136    -0.10800
C1515       C  0.59286509  0.64803490  0.12672831     0.02900
C1516       C  0.61375863  0.64700687  0.10260019    -0.09300
C1517       C  0.63515622  0.62349290  0.10066357     0.05400
C1518       C  0.63566060  0.60127384  0.12340440    -0.08700
H1519       H  0.57751098  0.62618660  0.16745194     0.10900
H1520       H  0.61390474  0.66478290  0.08577917     0.08500
H1521       H  0.65227985  0.58338670  0.12273665     0.08300
O1522       O  0.51894910  0.72187919  0.09274138    -0.70700
O1523       O  0.96022068  0.77879953  0.11446930    -0.71700
O1524       O  0.52165418  0.78603674  0.09103466    -0.60300
O1525       O  0.95959401  0.71443500  0.11465498    -0.68700
O1526       O  0.97245600  0.71467582  0.16334805    -0.68300
O1527       O  0.53556973  0.78710807  0.13945441    -0.59500
O1528       O  0.97266484  0.77950017  0.16326002    -0.72000
O1529       O  0.53256960  0.72287773  0.14124279    -0.70800
Cu1530     Cu  0.99033270  0.74636911  0.10413181     1.04600
Cu1531     Cu  0.50372733  0.75643706  0.15135993     1.04300
C1532       C  0.53523966  0.71191896  0.11441231     0.95500
C1533       C  0.95671510  0.78946057  0.14134915     0.94600
C1534       C  0.53892282  0.79618535  0.11214114     0.86800
C1535       C  0.95603850  0.70442348  0.14156639     0.93000
C1536       C  0.89039236  0.84441217  0.12808259     0.05400
C1537       C  0.86711941  0.84166241  0.10666191    -0.10800
C1538       C  0.84268691  0.86149783  0.10670154     0.02900
C1539       C  0.84112536  0.88451977  0.12884763    -0.09300
C1540       C  0.86419403  0.88799551  0.15072980     0.05400
C1541       C  0.88886859  0.86751564  0.15041827    -0.08700
H1542       H  0.86821365  0.82401104  0.08935734     0.10900
H1543       H  0.82197954  0.89979198  0.12905397     0.08500
H1544       H  0.90680757  0.86959219  0.16708484     0.08300
O1545       O  0.65958725  0.96899135  0.27534151    -0.70700
O1546       O  0.65955713  0.53254770  0.21932970    -0.71700
O1547       O  0.64988917  0.53495054  0.28311950    -0.60300
O1548       O  0.66628409  0.97477523  0.21169451    -0.68700
O1549       O  0.61612562  0.97781495  0.20792907    -0.68300
O1550       O  0.60005235  0.53447606  0.27563864    -0.59500
O1551       O  0.60962601  0.53169738  0.21245071    -0.72000
O1552       O  0.60953305  0.97303028  0.27131344    -0.70800
Cu1553     Cu  0.65610547  0.50148706  0.25244444     1.04600
Cu1554     Cu  0.61359749  0.00742489  0.24268807     1.04300
C1555       C  0.63275644  0.95985118  0.28202251     0.95500
C1556       C  0.63590698  0.54191270  0.20560613     0.94600
C1557       C  0.62356055  0.54548233  0.28890722     0.86800
C1558       C  0.64144901  0.96717395  0.19870876     0.93000
O1559       O  0.85903691  0.54224567  0.29245831    -0.70700
O1560       O  0.85752576  0.96494712  0.21473168    -0.71700
O1561       O  0.85107239  0.97161315  0.27901567    -0.60300
O1562       O  0.85550503  0.54218801  0.22800222    -0.68700
O1563       O  0.90495141  0.53337087  0.22567011    -0.68300
O1564       O  0.90106843  0.96837446  0.28392082    -0.59500
O1565       O  0.90757641  0.96313636  0.21986699    -0.72000
O1566       O  0.90841748  0.53311438  0.29012697    -0.70800
Cu1567     Cu  0.85481495  0.00067871  0.24451583     1.04600
Cu1568     Cu  0.90212397  0.50094200  0.25777041     1.04300
C1569       C  0.88619997  0.54790269  0.30131667     0.95500
C1570       C  0.88308650  0.95280368  0.20814912     0.94600
C1571       C  0.87423519  0.96095578  0.29248301     0.86800
C1572       C  0.88162817  0.54784576  0.21666740     0.93000
C1573       C  0.61781716  0.85257372  0.35865612     0.05400
C1574       C  0.62248449  0.87396948  0.33564314    -0.10800
C1575       C  0.64623965  0.89536679  0.33786196     0.02900
C1576       C  0.66578100  0.89476558  0.36272974    -0.09300
C1577       C  0.66178799  0.87354731  0.38576484     0.05400
C1578       C  0.63779347  0.85229923  0.38374812    -0.08700
H1579       H  0.60746312  0.87406754  0.31614789     0.10900
H1580       H  0.68399366  0.91144280  0.36447205     0.08500
H1581       H  0.63460449  0.83593265  0.40164739     0.08300
O1582       O  0.97793300  0.78651295  0.34589927    -0.70700
O1583       O  0.54362029  0.72242883  0.35107923    -0.71700
O1584       O  0.97543584  0.72162633  0.34578004    -0.60300
O1585       O  0.54446590  0.78657700  0.34943780    -0.68700
O1586       O  0.53753552  0.78835809  0.39930129    -0.68300
O1587       O  0.96885315  0.72199348  0.39566591    -0.59500
O1588       O  0.53728366  0.72442873  0.40104877    -0.72000
O1589       O  0.97069767  0.78701431  0.39574794    -0.70800
Cu1590     Cu  0.51220038  0.75412767  0.34404383     1.04600
Cu1591     Cu  0.00139892  0.75398189  0.40203870     1.04300
C1592       C  0.96483506  0.79735172  0.36936114     0.95500
C1593       C  0.55069842  0.71368075  0.37770975     0.94600
C1594       C  0.96206920  0.71137116  0.36936593     0.86800
C1595       C  0.55157472  0.79727964  0.37562546     0.93000
C1596       C  0.90013405  0.65117223  0.38858732     0.05400
C1597       C  0.89788222  0.62937038  0.36495076    -0.10800
C1598       C  0.87417291  0.60754238  0.36496709     0.02900
C1599       C  0.85291621  0.60770019  0.38868057    -0.09300
C1600       C  0.85527324  0.62876524  0.41263491     0.05400
C1601       C  0.87886383  0.65033557  0.41229867    -0.08700
H1602       H  0.91414970  0.62951971  0.34658229     0.10900
H1603       H  0.83417713  0.59162415  0.38804199     0.08500
H1604       H  0.88040914  0.66699334  0.43052792     0.08300
O1605       O  0.72135034  0.88443480  0.46153877    -0.70700
O1606       O  0.77408496  0.89757121  0.02935175    -0.71700
O1607       O  0.78524045  0.89142504  0.46736874    -0.60300
O1608       O  0.71041268  0.88832589  0.02437799    -0.68700
O1609       O  0.71601817  0.83853772  0.02860461    -0.68300
O1610       O  0.78891171  0.84171204  0.47396592    -0.59500
O1611       O  0.77938282  0.84777431  0.03399712    -0.72000
O1612       O  0.72496723  0.83461882  0.46727624    -0.70800
Cu1613     Cu  0.74530258  0.89171927  0.99457716     1.04600
Cu1614     Cu  0.75356280  0.84043841  0.50262826     1.04300
C1615       C  0.71387471  0.85740461  0.45357905     0.95500
C1616       C  0.78551419  0.87488199  0.04284236     0.94600
C1617       C  0.79807495  0.86614095  0.46140527     0.86800
C1618       C  0.70223104  0.86290030  0.03579696     0.93000
O1619       O  0.77544065  0.58900986  0.47944921    -0.70700
O1620       O  0.70917976  0.57549094  0.03413174    -0.71700
O1621       O  0.71226161  0.59733447  0.47409884    -0.60300
O1622       O  0.77334131  0.57847438  0.03765531    -0.68700
O1623       O  0.77162209  0.62881307  0.03849945    -0.68300
O1624       O  0.71985209  0.64688796  0.46881997    -0.59500
O1625       O  0.70719596  0.62582106  0.03450328    -0.72000
O1626       O  0.78310260  0.63872872  0.47662067    -0.70800
Cu1627     Cu  0.74325154  0.57541351  0.00368597     1.04600
Cu1628     Cu  0.74906515  0.64789331  0.50474695     1.04300
C1629       C  0.79004305  0.61176299  0.46869267     0.95500
C1630       C  0.69742897  0.60017553  0.04379992     0.94600
C1631       C  0.70742982  0.62188264  0.45999242     0.86800
C1632       C  0.78193533  0.60390309  0.04892151     0.93000
C1633       C  0.88750920  0.90417389  0.35753578     0.05400
C1634       C  0.86309415  0.90618734  0.37816827    -0.10800
C1635       C  0.86013535  0.88535282  0.40206988     0.02900
C1636       C  0.88229851  0.86278088  0.40540732    -0.09300
C1637       C  0.90621299  0.86004320  0.38470965     0.05400
C1638       C  0.90895324  0.88116240  0.36116444    -0.08700
H1639       H  0.84661271  0.92412347  0.37601985     0.10900
H1640       H  0.88130225  0.84718831  0.42420320     0.08500
H1641       H  0.92799771  0.88001980  0.34569292     0.08300
C1642       C  0.88841533  0.64919223  0.12938747     0.05400
C1643       C  0.86498278  0.64931160  0.10780625    -0.10800
C1644       C  0.84099406  0.62839654  0.10908054     0.02900
C1645       C  0.84004758  0.60740702  0.13289139    -0.09300
C1646       C  0.86337356  0.60656883  0.15465107     0.05400
C1647       C  0.88762419  0.62759606  0.15280213    -0.08700
H1648       H  0.86561498  0.66561631  0.08951449     0.10900
H1649       H  0.82115154  0.59160187  0.13455343     0.08500
H1650       H  0.90561612  0.62713383  0.16948118     0.08300
C1651       C  0.64012945  0.61047980  0.34629535     0.05400
C1652       C  0.61688687  0.63180167  0.34249078    -0.10800
C1653       C  0.61407055  0.65647004  0.36256220     0.02900
C1654       C  0.63541334  0.66062312  0.38596710    -0.09300
C1655       C  0.65865352  0.63968990  0.39015268     0.05400
C1656       C  0.66113623  0.61481276  0.36999663    -0.08700
H1657       H  0.60089708  0.62943768  0.32392429     0.10900
H1658       H  0.63384977  0.67998233  0.40121717     0.08500
H1659       H  0.67935330  0.59871301  0.37280114     0.08300
C1660       C  0.64011878  0.88455002  0.09364841     0.05400
C1661       C  0.63885150  0.90889127  0.11438662    -0.10800
C1662       C  0.61811057  0.90850922  0.13851992     0.02900
C1663       C  0.59809856  0.88402622  0.14150859    -0.09300
C1664       C  0.59863084  0.85967389  0.12098205     0.05400
C1665       C  0.61962938  0.85992022  0.09687135    -0.08700
H1666       H  0.65428268  0.92800086  0.11191236     0.10900
H1667       H  0.58219241  0.88373207  0.16028883     0.08500
H1668       H  0.62013160  0.84100784  0.08104001     0.08300
C1669       C  0.68770831  0.61988406  0.43303826    -0.14200
C1670       C  0.67943752  0.64371973  0.41640559    -0.29400
H1671       H  0.67927045  0.59740298  0.42684305     0.14800
H1672       H  0.68601389  0.66654109  0.42349344     0.15400
C1673       C  0.80388973  0.60375134  0.07424740    -0.14200
C1674       C  0.81735328  0.62909640  0.08506135    -0.29400
H1675       H  0.81004568  0.58183328  0.08338220     0.14800
H1676       H  0.81265962  0.65070794  0.07440114     0.15400
C1677       C  0.83416588  0.88797216  0.42366770    -0.14200
C1678       C  0.82369169  0.86426738  0.43988067    -0.29400
H1679       H  0.82280659  0.90969728  0.42557410     0.14800
H1680       H  0.83350779  0.84197671  0.43677984     0.15400
C1681       C  0.67690553  0.86105027  0.05774748    -0.14200
C1682       C  0.66337445  0.88583165  0.06924419    -0.29400
H1683       H  0.67042724  0.83869679  0.06578081     0.14800
H1684       H  0.67142603  0.90810927  0.06233686     0.15400
C1685       C  0.83207604  0.63067038  0.43702090    -0.14200
C1686       C  0.81462610  0.60717851  0.44627709    -0.29400
H1687       H  0.82934636  0.65270624  0.44793797     0.14800
H1688       H  0.81800568  0.58453086  0.43706715     0.15400
C1689       C  0.58883266  0.67790198  0.35837759    -0.14200
C1690       C  0.57502179  0.69151325  0.38194370    -0.29400
H1691       H  0.58069917  0.68166047  0.33542991     0.14800
H1692       H  0.58171511  0.68635111  0.40504833     0.15400
C1693       C  0.92832333  0.83516189  0.38873900    -0.14200
C1694       C  0.94309728  0.82224273  0.36535832    -0.29400
H1695       H  0.93141186  0.82624932  0.41144235     0.14800
H1696       H  0.93901188  0.82981649  0.34235180     0.15400
C1697       C  0.93887209  0.68681526  0.36600057    -0.14200
C1698       C  0.92440887  0.67499919  0.39018179    -0.29400
H1699       H  0.93347346  0.67870461  0.34327938     0.14800
H1700       H  0.92947344  0.68442545  0.41252709     0.15400
C1701       C  0.68214471  0.87616576  0.41233052    -0.14200
C1702       C  0.69211667  0.85254042  0.42843077    -0.29400
H1703       H  0.69092401  0.89875812  0.41758025     0.14800
H1704       H  0.68493595  0.82955876  0.42265569     0.15400
C1705       C  0.59219444  0.83060746  0.35539188    -0.14200
C1706       C  0.57665493  0.81957052  0.37917774    -0.29400
H1707       H  0.58508705  0.82434939  0.33252625     0.14800
H1708       H  0.58245754  0.82696177  0.40205471     0.15400
C1709       C  0.88514446  0.57125482  0.19297399    -0.14200
C1710       C  0.86100967  0.58390988  0.17938573    -0.29400
H1711       H  0.90798784  0.57728470  0.18588270     0.14800
H1712       H  0.83836189  0.57608294  0.18544369     0.15400
C1713       C  0.86924212  0.94012400  0.31820534    -0.14200
C1714       C  0.89211096  0.92606894  0.33238242    -0.29400
H1715       H  0.84595446  0.93572828  0.32502806     0.14800
H1716       H  0.91512780  0.92941673  0.32412065     0.15400
C1717       C  0.89222667  0.57170098  0.32462588    -0.14200
C1718       C  0.86953575  0.58507724  0.33997492    -0.29400
H1719       H  0.91566303  0.57743815  0.32998877     0.14800
H1720       H  0.84633724  0.57765365  0.33553642     0.15400
C1721       C  0.64242860  0.94568627  0.17303008    -0.14200
C1722       C  0.61711097  0.93297761  0.16154877    -0.29400
H1723       H  0.66453032  0.93880313  0.16463868     0.14800
H1724       H  0.59523503  0.93832185  0.17156246     0.15400
C1725       C  0.61987192  0.57097818  0.31057154    -0.14200
C1726       C  0.64345349  0.58393541  0.32546887    -0.29400
H1727       H  0.59701563  0.57925686  0.31414038     0.14800
H1728       H  0.66595243  0.57432548  0.32291268     0.15400
C1729       C  0.62793662  0.93386239  0.30219513    -0.14200
C1730       C  0.65108103  0.91928216  0.31509501    -0.29400
H1731       H  0.60469444  0.92730285  0.30737657     0.14800
H1732       H  0.67420501  0.92710808  0.31115959     0.15400
C1733       C  0.80601854  0.88025912  0.06879950    -0.14200
C1734       C  0.81933817  0.85712264  0.08300139    -0.29400
H1735       H  0.81114682  0.90353528  0.07550536     0.14800
H1736       H  0.81521157  0.83404253  0.07496638     0.15400
C1737       C  0.86144492  0.91335435  0.17325922    -0.14200
C1738       C  0.88545605  0.92659780  0.18697959    -0.29400
H1739       H  0.83900981  0.92261406  0.17731452     0.14800
H1740       H  0.90815374  0.91854572  0.18211645     0.15400
C1741       C  0.57766631  0.83397027  0.12674873    -0.14200
C1742       C  0.56261529  0.81889014  0.10475450    -0.29400
H1743       H  0.57214023  0.82935829  0.15031459     0.14800
H1744       H  0.56636067  0.82460947  0.08111697     0.15400
C1745       C  0.91362618  0.67141213  0.12544528    -0.14200
C1746       C  0.93258325  0.68100171  0.14758705    -0.29400
H1747       H  0.91579160  0.68144901  0.10309510     0.14800
H1748       H  0.93035457  0.67252752  0.17051708     0.15400
C1749       C  0.91619612  0.82325780  0.12455916    -0.14200
C1750       C  0.93379396  0.81323890  0.14720358    -0.29400
H1751       H  0.91941046  0.81365712  0.10197353     0.14800
H1752       H  0.93054392  0.82145142  0.17026647     0.15400
C1753       C  0.67273491  0.59880391  0.06629952    -0.14200
C1754       C  0.65807501  0.62382323  0.07595611    -0.29400
H1755       H  0.66672849  0.57662566  0.07505908     0.14800
H1756       H  0.66313241  0.64551173  0.06546239     0.15400
C1757       C  0.61394147  0.57873350  0.17100635    -0.14200
C1758       C  0.63873048  0.56477824  0.18164428    -0.29400
H1759       H  0.59193721  0.57388857  0.18110561     0.14800
H1760       H  0.66119936  0.57079607  0.17342761     0.15400
C1761       C  0.55741294  0.68764820  0.10827563    -0.14200
C1762       C  0.57124313  0.67322714  0.13109842    -0.29400
H1763       H  0.56169152  0.68098205  0.08489003     0.14800
H1764       H  0.56513065  0.67891108  0.15435476     0.15400
C1765       C  0.62533894  0.61018312  0.66076144     0.05400
C1766       C  0.60663221  0.63561268  0.66261360    -0.10800
C1767       C  0.60521620  0.65644230  0.63879048     0.02900
C1768       C  0.62361842  0.65175948  0.61283231    -0.09300
C1769       C  0.64251280  0.62603148  0.61076962     0.05400
C1770       C  0.64284089  0.60539166  0.63468329    -0.08700
H1771       H  0.59250252  0.63880785  0.68251011     0.10900
H1772       H  0.62301960  0.66768325  0.59432516     0.08500
H1773       H  0.65653980  0.58517351  0.63265573     0.08300
O1774       O  0.53091635  0.72494994  0.59748934    -0.70700
O1775       O  0.96355001  0.78570962  0.59311765    -0.71700
O1776       O  0.52469105  0.78934958  0.59654291    -0.60300
O1777       O  0.96651633  0.72218376  0.58534565    -0.68700
O1778       O  0.96654135  0.71659651  0.63536053    -0.68300
O1779       O  0.52717066  0.79096211  0.64686640    -0.59500
O1780       O  0.96201302  0.78060932  0.64316974    -0.72000
O1781       O  0.53573463  0.72686804  0.64759715    -0.70800
Cu1782     Cu  0.99721661  0.75636294  0.58815935     1.04600
Cu1783     Cu  0.49969273  0.75564799  0.65164744     1.04300
C1784       C  0.54443204  0.71681839  0.62160022     0.95500
C1785       C  0.95194885  0.79250245  0.61873855     0.94600
C1786       C  0.53458161  0.80163794  0.62117463     0.86800
C1787       C  0.95674579  0.70887070  0.60912073     0.93000
C1788       C  0.88794861  0.84790719  0.64059066     0.05400
C1789       C  0.86598308  0.84402378  0.61768252    -0.10800
C1790       C  0.84317627  0.86548695  0.61330836     0.02900
C1791       C  0.84163912  0.89079457  0.63298831    -0.09300
C1792       C  0.86300082  0.89487254  0.65647965     0.05400
C1793       C  0.88586527  0.87294372  0.66036642    -0.08700
H1794       H  0.86674140  0.82428740  0.60285236     0.10900
H1795       H  0.82378877  0.90728737  0.63023486     0.08500
H1796       H  0.90225723  0.87525149  0.67857337     0.08300
O1797       O  0.65146397  0.96200309  0.77188235    -0.70700
O1798       O  0.66815589  0.53133816  0.72346775    -0.71700
O1799       O  0.66299599  0.52478972  0.78720912    -0.60300
O1800       O  0.65635599  0.96789095  0.70813950    -0.68700
O1801       O  0.60642514  0.97351299  0.70487308    -0.68300
O1802       O  0.61288033  0.52853741  0.78391390    -0.59500
O1803       O  0.61799432  0.53490372  0.72035767    -0.72000
O1804       O  0.60153921  0.96768897  0.76880346    -0.70800
Cu1805     Cu  0.66485486  0.49605052  0.75186955     1.04600
Cu1806     Cu  0.60642803  0.00263172  0.74060159     1.04300
C1807       C  0.62452026  0.95374515  0.77911986     0.95500
C1808       C  0.64450075  0.54426683  0.71315904     0.94600
C1809       C  0.63804283  0.53580172  0.79673914     0.86800
C1810       C  0.63109792  0.96183132  0.69513955     0.93000
O1811       O  0.85857046  0.54464237  0.78814398    -0.70700
O1812       O  0.85847099  0.97419794  0.71778754    -0.71700
O1813       O  0.85280872  0.98140166  0.78201430    -0.60300
O1814       O  0.86200655  0.53834558  0.72395674    -0.68700
O1815       O  0.91206315  0.53451750  0.72748461    -0.68300
O1816       O  0.90268104  0.97683823  0.78687160    -0.59500
O1817       O  0.90846936  0.97101875  0.72275373    -0.72000
O1818       O  0.90859386  0.54000635  0.79145663    -0.70800
Cu1819     Cu  0.85707803  0.01012412  0.74717331     1.04600
Cu1820     Cu  0.90885613  0.50501181  0.76239153     1.04300
C1821       C  0.88420908  0.55345948  0.79897814     0.95500
C1822       C  0.88362077  0.96131087  0.71121761     0.94600
C1823       C  0.87567426  0.96996987  0.79537458     0.86800
C1824       C  0.88855716  0.54585940  0.71497471     0.93000
C1825       C  0.61213383  0.84891495  0.86066568     0.05400
C1826       C  0.61512893  0.86976871  0.83686240    -0.10800
C1827       C  0.63889842  0.89131255  0.83710985     0.02900
C1828       C  0.65979352  0.89159782  0.86093952    -0.09300
C1829       C  0.65740206  0.87087987  0.88458251     0.05400
C1830       C  0.63369506  0.84937002  0.88433798    -0.08700
H1831       H  0.59894222  0.86925615  0.81833789     0.10900
H1832       H  0.67793765  0.90841776  0.86128343     0.08500
H1833       H  0.63189090  0.83333959  0.90268778     0.08300
O1834       O  0.97531440  0.78785142  0.84297154    -0.70700
O1835       O  0.53370537  0.71791558  0.86825035    -0.71700
O1836       O  0.97143185  0.72305146  0.84353840    -0.60300
O1837       O  0.53859333  0.78196253  0.86151117    -0.68700
O1838       O  0.53641134  0.78757774  0.91158503    -0.68300
O1839       O  0.96343654  0.72421442  0.89322585    -0.59500
O1840       O  0.53217064  0.72382112  0.91831044    -0.72000
O1841       O  0.96702110  0.78885923  0.89262219    -0.70800
Cu1842     Cu  0.50407296  0.75151012  0.86168070     1.04600
Cu1843     Cu  0.99678184  0.75528019  0.89996487     1.04300
C1844       C  0.96187513  0.79916072  0.86608756     0.95500
C1845       C  0.54229478  0.71016573  0.89476900     0.94600
C1846       C  0.95680386  0.71385523  0.86679609     0.86800
C1847       C  0.54836406  0.79424781  0.88610967     0.93000
C1848       C  0.89005413  0.65811930  0.88326221     0.05400
C1849       C  0.88809678  0.63716567  0.85888476    -0.10800
C1850       C  0.86462165  0.61521945  0.85781453     0.02900
C1851       C  0.84312687  0.61436014  0.88112757    -0.09300
C1852       C  0.84530720  0.63424778  0.90608650     0.05400
C1853       C  0.86849316  0.65630632  0.90674177    -0.08700
H1854       H  0.90473280  0.63761924  0.84089346     0.10900
H1855       H  0.82481606  0.59781358  0.87988801     0.08500
H1856       H  0.86994858  0.67193543  0.92584955     0.08300
O1857       O  0.71678506  0.88257158  0.96044581    -0.70700
O1858       O  0.77778379  0.89950754  0.53146198    -0.71700
O1859       O  0.78072511  0.89133721  0.96492257    -0.60300
O1860       O  0.71394297  0.89233487  0.52459845    -0.68700
O1861       O  0.71773940  0.84250198  0.53038333    -0.68300
O1862       O  0.78548779  0.84154733  0.96994020    -0.59500
O1863       O  0.78154168  0.84979065  0.53789107    -0.72000
O1864       O  0.72174976  0.83272041  0.96497130    -0.70800
Cu1865     Cu  0.74951257  0.89366878  0.49604093     1.04600
Cu1866     Cu  0.75094625  0.83845533  0.99952847     1.04300
C1867       C  0.71002932  0.85553991  0.95192273     0.95500
C1868       C  0.78832481  0.87699201  0.54600290     0.94600
C1869       C  0.79404566  0.86650813  0.95799595     0.86800
C1870       C  0.70427329  0.86745105  0.53594273     0.93000
O1871       O  0.77707101  0.57933001  0.97310250    -0.70700
O1872       O  0.70608806  0.60529555  0.53806336    -0.71700
O1873       O  0.71286238  0.57531942  0.96994121    -0.60300
O1874       O  0.76927046  0.59453089  0.54356785    -0.68700
O1875       O  0.77793418  0.64412622  0.54072742    -0.68300
O1876       O  0.71023952  0.62561221  0.97031826    -0.59500
O1877       O  0.71443775  0.65473732  0.53313947    -0.72000
O1878       O  0.77471925  0.62963560  0.97396322    -0.70800
Cu1879     Cu  0.74042150  0.59485672  0.50898557     1.04600
Cu1880     Cu  0.74091174  0.62924224  0.00433509     1.04300
C1881       C  0.78640044  0.60516869  0.96375961     0.95500
C1882       C  0.69958147  0.63286682  0.54485721     0.94600
C1883       C  0.70173937  0.59977964  0.95962367     0.86800
C1884       C  0.78285756  0.61837933  0.55309965     0.93000
C1885       C  0.88623818  0.90864410  0.85716267     0.05400
C1886       C  0.86153591  0.91012780  0.87759633    -0.10800
C1887       C  0.85730657  0.88777737  0.89994715     0.02900
C1888       C  0.87868446  0.86426487  0.90204790    -0.09300
C1889       C  0.90297884  0.86207555  0.88163937     0.05400
C1890       C  0.90677124  0.88455426  0.85951017    -0.08700
H1891       H  0.84576182  0.92877990  0.87651481     0.10900
H1892       H  0.87688063  0.84755365  0.91979235     0.08500
H1893       H  0.92601603  0.88368276  0.84427016     0.08300
C1894       C  0.89761359  0.64788629  0.62993256     0.05400
C1895       C  0.87335348  0.65162203  0.60966195    -0.10800
C1896       C  0.84805375  0.63220442  0.61033235     0.02900
C1897       C  0.84689710  0.60901874  0.63221215    -0.09300
C1898       C  0.87104634  0.60482096  0.65265119     0.05400
C1899       C  0.89619932  0.62467314  0.65148300    -0.08700
H1900       H  0.87374338  0.67004275  0.59356963     0.10900
H1901       H  0.82710122  0.59440808  0.63383289     0.08500
H1902       H  0.91446850  0.62276633  0.66777291     0.08300
C1903       C  0.61596875  0.59616865  0.85661633     0.05400
C1904       C  0.59450383  0.61944069  0.85614526    -0.10800
C1905       C  0.59535581  0.64305530  0.87766914     0.02900
C1906       C  0.61814695  0.64326892  0.90003282    -0.09300
C1907       C  0.63948047  0.61986407  0.90143338     0.05400
C1908       C  0.63824263  0.59629402  0.87959418    -0.08700
H1909       H  0.57729256  0.61947242  0.83852898     0.10900
H1910       H  0.61977032  0.66190292  0.91616340     0.08500
H1911       H  0.65474523  0.57835235  0.88016493     0.08300
C1912       C  0.63526208  0.89133675  0.58317399     0.05400
C1913       C  0.63237539  0.91300649  0.60638624    -0.10800
C1914       C  0.60789126  0.91170154  0.62675600     0.02900
C1915       C  0.58533150  0.88942080  0.62252616    -0.09300
C1916       C  0.58798190  0.86736744  0.59929407     0.05400
C1917       C  0.61277374  0.86877422  0.57946205    -0.08700
H1918       H  0.64967818  0.93048080  0.60893653     0.10900
H1919       H  0.56620216  0.88880404  0.63793968     0.08500
H1920       H  0.61484407  0.85190588  0.56154106     0.08300
C1921       C  0.67875245  0.59748524  0.93529548    -0.14200
C1922       C  0.66343104  0.62167688  0.92526786    -0.29400
H1923       H  0.67363432  0.57495627  0.92646416     0.14800
H1924       H  0.66778782  0.64369685  0.93580974     0.15400
C1925       C  0.80468542  0.61487586  0.57822984    -0.14200
C1926       C  0.82339294  0.63716573  0.58780232    -0.29400
H1927       H  0.80673253  0.59226877  0.58751795     0.14800
H1928       H  0.82221935  0.65917078  0.57692899     0.15400
C1929       C  0.83096354  0.88986019  0.92138635    -0.14200
C1930       C  0.81963914  0.86554757  0.93618201    -0.29400
H1931       H  0.82020152  0.91175948  0.92450453     0.14800
H1932       H  0.82902279  0.84325763  0.93189717     0.15400
C1933       C  0.67694615  0.86689698  0.55511511    -0.14200
C1934       C  0.66250069  0.89227891  0.56363561    -0.29400
H1935       H  0.66861253  0.84492067  0.56259187     0.14800
H1936       H  0.67196753  0.91433696  0.55784443     0.15400
C1937       C  0.82303533  0.63275716  0.93129565    -0.14200
C1938       C  0.81027799  0.60643938  0.94034365    -0.29400
H1939       H  0.81744063  0.65377450  0.94302830     0.14800
H1940       H  0.81728388  0.58510987  0.93011223     0.15400
C1941       C  0.57313349  0.66800010  0.87496206    -0.14200
C1942       C  0.56420898  0.68536492  0.89852927    -0.29400
H1943       H  0.56305007  0.67158779  0.85276570     0.14800
H1944       H  0.57253368  0.68101783  0.92125357     0.15400
C1945       C  0.92464289  0.83658186  0.88502398    -0.14200
C1946       C  0.94056359  0.82457118  0.86182166    -0.29400
H1947       H  0.92657416  0.82649033  0.90735286     0.14800
H1948       H  0.93773593  0.83322082  0.83901495     0.15400
C1949       C  0.93220786  0.69095808  0.86271500    -0.14200
C1950       C  0.91491414  0.68127571  0.88601014    -0.29400
H1951       H  0.92816643  0.68243387  0.83989189     0.14800
H1952       H  0.91869498  0.69132847  0.90833160     0.15400
C1953       C  0.67902823  0.87395447  0.91004273    -0.14200
C1954       C  0.68835630  0.85061284  0.92689899    -0.29400
H1955       H  0.68862230  0.89643154  0.91425221     0.14800
H1956       H  0.68060372  0.82763733  0.92193291     0.15400
C1957       C  0.58643188  0.82682244  0.86026194    -0.14200
C1958       C  0.57381503  0.81619540  0.88589121    -0.29400
H1959       H  0.57686995  0.82015120  0.83842537     0.14800
H1960       H  0.58186733  0.82433052  0.90781816     0.15400
C1961       C  0.89232864  0.56831505  0.69041103    -0.14200
C1962       C  0.86839052  0.58073525  0.67609575    -0.29400
H1963       H  0.91531856  0.57479362  0.68430912     0.14800
H1964       H  0.84566403  0.57271514  0.68157166     0.15400
C1965       C  0.86999293  0.94859599  0.82062045    -0.14200
C1966       C  0.89199417  0.93200423  0.83342318    -0.29400
H1967       H  0.84659408  0.94540728  0.82766516     0.14800
H1968       H  0.91499738  0.93419846  0.82476530     0.15400
C1969       C  0.88647074  0.57915970  0.82059752    -0.14200
C1970       C  0.86205387  0.59224353  0.83309100    -0.29400
H1971       H  0.90906570  0.58620819  0.82780595     0.14800
H1972       H  0.83956084  0.58363163  0.82729863     0.15400
C1973       C  0.63136983  0.94145993  0.66843587    -0.14200
C1974       C  0.60622388  0.93257948  0.65333758    -0.29400
H1975       H  0.65337893  0.93316519  0.66120973     0.14800
H1976       H  0.58402613  0.93919747  0.66169233     0.15400
C1977       C  0.63907999  0.55734720  0.82256960    -0.14200
C1978       C  0.61452979  0.57240335  0.83243742    -0.29400
H1979       H  0.66118784  0.56201239  0.83252436     0.14800
H1980       H  0.59295379  0.56874412  0.82091898     0.15400
C1981       C  0.61956524  0.92812477  0.79982017    -0.14200
C1982       C  0.64290315  0.91419994  0.81315931    -0.29400
H1983       H  0.59637224  0.92175320  0.80539459     0.14800
H1984       H  0.66591648  0.92203681  0.80863680     0.15400
C1985       C  0.80840641  0.88289915  0.57238640    -0.14200
C1986       C  0.82137544  0.86032427  0.58796176    -0.29400
H1987       H  0.81324351  0.90638251  0.57847428     0.14800
H1988       H  0.81752535  0.83701630  0.58050749     0.15400
C1989       C  0.86069349  0.92208152  0.67674786    -0.14200
C1990       C  0.88502672  0.93469262  0.69057863    -0.29400
H1991       H  0.83863631  0.93260733  0.67946728     0.14800
H1992       H  0.90739501  0.92535800  0.68656928     0.15400
C1993       C  0.56624237  0.84152824  0.59657587    -0.14200
C1994       C  0.55459495  0.82854046  0.62141929    -0.29400
H1995       H  0.56185900  0.83151438  0.57435139     0.14800
H1996       H  0.56086467  0.83739335  0.64367603     0.15400
C1997       C  0.92360750  0.66943074  0.63071535    -0.14200
C1998       C  0.93322552  0.68503452  0.60635535    -0.29400
H1999       H  0.93514179  0.67265663  0.65234723     0.14800
H2000       H  0.92326212  0.68086891  0.58414776     0.15400
C2001       C  0.91360140  0.82629306  0.64346236    -0.14200
C2002       C  0.92640090  0.81392367  0.61862655    -0.29400
H2003       H  0.92305416  0.82189081  0.66575864     0.14800
H2004       H  0.91822069  0.82042087  0.59636114     0.15400
C2005       C  0.67551579  0.64030347  0.56710119    -0.14200
C2006       C  0.66212585  0.61902294  0.58417565    -0.29400
H2007       H  0.67083095  0.66411658  0.57135824     0.14800
H2008       H  0.66851000  0.59546720  0.58066471     0.15400
C2009       C  0.62413449  0.58734812  0.68506963    -0.14200
C2010       C  0.64782091  0.56969466  0.69207249    -0.29400
H2011       H  0.60285583  0.58470675  0.69727711     0.14800
H2012       H  0.66987621  0.57353588  0.68174678     0.15400
C2013       C  0.56970544  0.69504762  0.61832190    -0.14200
C2014       C  0.58345165  0.68203438  0.64201871    -0.29400
H2015       H  0.57546169  0.68791809  0.59541271     0.14800
H2016       H  0.57618004  0.68825440  0.66479176     0.15400
loop_ 
_geom_bond_atom_site_label_1 
_geom_bond_atom_site_label_2 
_geom_bond_distance 
_geom_bond_site_symmetry_2 
_ccdc_geom_bond_type 
C1            C2   1.398       .  A
C1            C6   1.405       .  A
C1          C245   1.480       .  S
C2            C3   1.399       .  A
C2            H7   1.085       .  S
C3            C4   1.408       .  A
C3          C250   1.484       .  S
C4            C5   1.408       .  A
C4            H8   1.082       .  S
C5            C6   1.410       .  A
C5          C242   1.486       .  S
C6            H9   1.081       .  S
O10          C20   1.277       .  A
O10       Cu1026   2.016   1_455  S
O11          C21   1.278       .  A
O11         Cu18   2.003       .  S
O12          C22   1.278       .  A
O12       Cu1026   2.006   1_455  S
O13          C23   1.278       .  A
O13         Cu18   2.019       .  S
O14          C23   1.278       .  A
O14       Cu1027   2.003       .  S
O15          C22   1.278       .  A
O15         Cu19   2.015   1_455  S
O16          C21   1.277       .  A
O16       Cu1027   2.011       .  S
O17          C20   1.279       .  A
O17         Cu19   2.002   1_455  S
Cu18       O1018   2.004       .  S
Cu18       O1020   2.012       .  S
Cu18      Cu1027   2.375       .  S
Cu19       O1022   2.023       .  S
Cu19       O1024   2.004       .  S
Cu19      Cu1026   2.373       .  S
C20         C249   1.479       .  S
C21         C238   1.475       .  S
C22         C230   1.476       .  S
C23         C234   1.479       .  S
C24          C25   1.395       .  A
C24          C29   1.402       .  A
C24         C237   1.479       .  S
C25          C26   1.405       .  A
C25          H30   1.083       .  S
C26          C27   1.411       .  A
C26         C222   1.494       .  S
C27          C28   1.417       .  A
C27          H31   1.082       .  S
C28          C29   1.406       .  A
C28         C225   1.493       .  S
C29          H32   1.084       .  S
O33          C43   1.277       .  A
O33        Cu545   2.014       .  S
O34          C44   1.279       .  A
O34         Cu41   2.026   1_545  S
O35          C45   1.275       .  A
O35         Cu41   1.998   1_545  S
O36          C46   1.277       .  A
O36        Cu545   2.009       .  S
O37          C46   1.278       .  A
O37         Cu42   2.003       .  S
O38          C45   1.280       .  A
O38        Cu546   2.014       .  S
O39          C44   1.276       .  A
O39        Cu546   1.988       .  S
O40          C43   1.278       .  A
O40         Cu42   1.995       .  S
Cu41        O537   2.028       .  S
Cu41        O540   1.990       .  S
Cu41       Cu546   2.375   1_565  S
Cu42        O542   2.003       .  S
Cu42        O543   1.994       .  S
Cu42       Cu545   2.376       .  S
C43         C217   1.475       .  S
C44         C246   1.478       .  S
C45         C213   1.473       .  S
C46         C209   1.474       .  S
O47          C57   1.280       .  A
O47        Cu559   2.020       .  S
O48          C58   1.276       .  A
O48         Cu55   2.008       .  S
O49          C59   1.282       .  A
O49         Cu55   2.036       .  S
O50          C60   1.279       .  A
O50        Cu559   2.017       .  S
O51          C60   1.277       .  A
O51         Cu56   2.011       .  S
O52          C59   1.275       .  A
O52        Cu560   2.006       .  S
O53          C58   1.282       .  A
O53        Cu560   2.035       .  S
O54          C57   1.279       .  A
O54         Cu56   2.026       .  S
Cu55        O551   2.010       .  S
Cu55        O554   2.035       .  S
Cu55       Cu560   2.372       .  S
Cu56        O556   2.016   1_545  S
Cu56        O557   2.024   1_545  S
Cu56       Cu559   2.372       .  S
C57         C205   1.487       .  S
C58         C226   1.484       .  S
C59         C201   1.484       .  S
C60         C197   1.478       .  S
C61          C62   1.397       .  A
C61          C66   1.410       .  A
C61         C193   1.485       .  S
C62          C63   1.398       .  A
C62          H67   1.085       .  S
C63          C64   1.405       .  A
C63         C218   1.480       .  S
C64          C65   1.406       .  A
C64          H68   1.083       .  S
C65          C66   1.414       .  A
C65         C189   1.490       .  S
C66          H69   1.081       .  S
O70          C80   1.276       .  A
O70       Cu1086   2.012       .  S
O71          C81   1.274       .  A
O71         Cu78   1.991       .  S
O72          C82   1.279       .  A
O72       Cu1086   2.028       .  S
O73          C83   1.281       .  A
O73         Cu78   2.024       .  S
O74          C83   1.276       .  A
O74       Cu1087   2.006   1_455  S
O75          C82   1.280       .  A
O75         Cu79   2.016       .  S
O76          C81   1.280       .  A
O76       Cu1087   2.026   1_455  S
O77          C80   1.281       .  A
O77         Cu79   2.026       .  S
Cu78       O1078   1.998   1_455  S
Cu78       O1080   2.030   1_455  S
Cu78      Cu1087   2.373   1_455  S
Cu79       O1082   2.011       .  S
Cu79       O1084   2.016       .  S
Cu79      Cu1086   2.372       .  S
C80         C182   1.484       .  S
C81         C178   1.472       .  S
C82         C185   1.488       .  S
C83         C194   1.480       .  S
C84          C85   1.415       .  A
C84          C89   1.405       .  A
C84         C186   1.492       .  S
C85          C86   1.414       .  A
C85          H90   1.082       .  S
C86          C87   1.405       .  A
C86         C206   1.490       .  S
C87          C88   1.405       .  A
C87          H91   1.083       .  S
C88          C89   1.400       .  A
C88         C173   1.490       .  S
C89          H92   1.085       .  S
O93         C103   1.281       .  A
O93        Cu353   2.027       .  S
O94         C104   1.279       .  A
O94        Cu101   2.028   1_554  S
O95         C105   1.278       .  A
O95        Cu353   2.006       .  S
O96         C106   1.280       .  A
O96        Cu101   2.020   1_554  S
O97         C106   1.274       .  A
O97        Cu354   1.990   1_554  S
O98         C105   1.277       .  A
O98        Cu102   2.009       .  S
O99         C104   1.278       .  A
O99        Cu354   2.008   1_554  S
O100        C103   1.276       .  A
O100       Cu102   2.004       .  S
Cu101       O345   2.028       .  S
Cu101       O347   2.021       .  S
Cu101      Cu354   2.374       .  S
Cu102       O349   2.005       .  S
Cu102       O351   2.001       .  S
Cu102      Cu353   2.375       .  S
C103        C190   1.480       .  S
C104        C221   1.478       .  S
C105        C166   1.474       .  S
C106        C169   1.471       .  S
O107        C117   1.277       .  A
O107       Cu367   2.007       .  S
O108        C118   1.278       .  A
O108       Cu115   2.014       .  S
O109        C119   1.279       .  A
O109       Cu367   2.013       .  S
O110        C120   1.275       .  A
O110       Cu115   1.999       .  S
O111        C120   1.281       .  A
O111       Cu368   2.029       .  S
O112        C119   1.276       .  A
O112       Cu116   2.006       .  S
O113        C118   1.278       .  A
O113       Cu368   2.009       .  S
O114        C117   1.280       .  A
O114       Cu116   2.022       .  S
Cu115       O359   2.012   1_554  S
Cu115       O361   2.001   1_554  S
Cu115      Cu368   2.374       .  S
Cu116       O363   2.008       .  S
Cu116       O365   2.020       .  S
Cu116      Cu367   2.374       .  S
C117        C174   1.478       .  S
C118        C241   1.477       .  S
C119        C157   1.476       .  S
C120        C161   1.476       .  S
C121        C122   1.404       .  A
C121        C126   1.417       .  A
C121        C202   1.494       .  S
C122        C123   1.399       .  A
C122        H127   1.085       .  S
C123        C124   1.402       .  A
C123        C165   1.484       .  S
C124        C125   1.401       .  A
C124        H128   1.083       .  S
C125        C126   1.414       .  A
C125        C181   1.490       .  S
C126        H129   1.081       .  S
C130        C131   1.408       .  A
C130        C135   1.405       .  A
C130        C233   1.488       .  S
C131        C132   1.403       .  A
C131        H136   1.082       .  S
C132        C133   1.408       .  A
C132        C162   1.487       .  S
C133        C134   1.402       .  A
C133        H137   1.083       .  S
C134        C135   1.406       .  A
C134        C198   1.488       .  S
C135        H138   1.083       .  S
C139        C140   1.398       .  A
C139        C144   1.404       .  A
C139        C214   1.483       .  S
C140        C141   1.407       .  A
C140        H145   1.083       .  S
C141        C142   1.405       .  A
C141        C177   1.487       .  S
C142        C143   1.409       .  A
C142        H146   1.083       .  S
C143        C144   1.402       .  A
C143        C158   1.483       .  S
C144        H147   1.083       .  S
C148        C149   1.401       .  A
C148        C153   1.406       .  A
C148        C170   1.483       .  S
C149        C150   1.407       .  A
C149        H154   1.082       .  S
C150        C151   1.404       .  A
C150        C210   1.484       .  S
C151        C152   1.405       .  A
C151        H155   1.083       .  S
C152        C153   1.401       .  A
C152        C229   1.483       .  S
C153        H156   1.083       .  S
C157        C158   1.343       .  D
C157        H159   1.086       .  S
C158        H160   1.087       .  S
C161        C162   1.344       .  D
C161        H163   1.086       .  S
C162        H164   1.087       .  S
C165        C166   1.346       .  D
C165        H167   1.087       .  S
C166        H168   1.086       .  S
C169        C170   1.342       .  D
C169        H171   1.086       .  S
C170        H172   1.087       .  S
C173        C174   1.346       .  D
C173        H175   1.087       .  S
C174        H176   1.085       .  S
C177        C178   1.344       .  D
C177        H179   1.087       .  S
C178        H180   1.086       .  S
C181        C182   1.344       .  D
C181        H183   1.087       .  S
C182        H184   1.085       .  S
C185        C186   1.348       .  D
C185        H187   1.085       .  S
C186        H188   1.087       .  S
C189        C190   1.345       .  D
C189        H191   1.087       .  S
C190        H192   1.085       .  S
C193        C194   1.342       .  D
C193        H195   1.087       .  S
C194        H196   1.086       .  S
C197        C198   1.346       .  D
C197        H199   1.086       .  S
C198        H200   1.087       .  S
C201        C202   1.345       .  D
C201        H203   1.085       .  S
C202        H204   1.087       .  S
C205        C206   1.347       .  D
C205        H207   1.086       .  S
C206        H208   1.087       .  S
C209        C210   1.346       .  D
C209        H211   1.085       .  S
C210        H212   1.087       .  S
C213        C214   1.343       .  D
C213        H215   1.086       .  S
C214        H216   1.087       .  S
C217        C218   1.344       .  D
C217        H219   1.085       .  S
C218        H220   1.087       .  S
C221        C222   1.351       .  D
C221        H223   1.086       .  S
C222        H224   1.086       .  S
C225        C226   1.345       .  D
C225        H227   1.087       .  S
C226        H228   1.085       .  S
C229        C230   1.345       .  D
C229        H231   1.087       .  S
C230        H232   1.086       .  S
C233        C234   1.348       .  D
C233        H235   1.087       .  S
C234        H236   1.084       .  S
C237        C238   1.343       .  D
C237        H239   1.087       .  S
C238        H240   1.086       .  S
C241        C242   1.347       .  D
C241        H243   1.085       .  S
C242        H244   1.087       .  S
C245        C246   1.346       .  D
C245        H247   1.087       .  S
C246        H248   1.085       .  S
C249        C250   1.345       .  D
C249        H251   1.085       .  S
C250        H252   1.087       .  S
C253        C254   1.403       .  A
C253        C258   1.404       .  A
C253        C497   1.484       .  S
C254        C255   1.401       .  A
C254        H259   1.084       .  S
C255        C256   1.411       .  A
C255        C502   1.490       .  S
C256        C257   1.406       .  A
C256        H260   1.083       .  S
C257        C258   1.407       .  A
C257        C494   1.488       .  S
C258        H261   1.080       .  S
O262        C272   1.273       .  A
O262      Cu1278   1.989   1_455  S
O263        C273   1.277       .  A
O263       Cu270   1.997       .  S
O264        C274   1.281       .  A
O264      Cu1278   2.029   1_455  S
O265        C275   1.278       .  A
O265       Cu270   2.015       .  S
O266        C275   1.278       .  A
O266      Cu1279   2.008       .  S
O267        C274   1.273       .  A
O267       Cu271   1.983   1_455  S
O268        C273   1.278       .  A
O268      Cu1279   2.014       .  S
O269        C272   1.283       .  A
O269       Cu271   2.043   1_455  S
Cu270      O1270   2.002       .  S
Cu270      O1272   2.014       .  S
Cu270     Cu1279   2.375       .  S
Cu271      O1274   1.990       .  S
Cu271      O1276   2.044       .  S
Cu271     Cu1278   2.374       .  S
C272        C501   1.478       .  S
C273        C490   1.473       .  S
C274        C482   1.470       .  S
C275        C486   1.477       .  S
C276        C277   1.397       .  A
C276        C281   1.401       .  A
C276        C489   1.478       .  S
C277        C278   1.407       .  A
C277        H282   1.083       .  S
C278        C279   1.409       .  A
C278        C474   1.492       .  S
C279        C280   1.414       .  A
C279        H283   1.083       .  S
C280        C281   1.402       .  A
C280        C477   1.487       .  S
C281        H284   1.084       .  S
O285        C295   1.276       .  A
O285       Cu797   2.011       .  S
O286        C296   1.279       .  A
O286       Cu293   2.022   1_545  S
O287        C297   1.275       .  A
O287       Cu293   1.997   1_545  S
O288        C298   1.277       .  A
O288       Cu797   2.012       .  S
O289        C298   1.279       .  A
O289       Cu294   2.009       .  S
O290        C297   1.281       .  A
O290       Cu798   2.020   1_545  S
O291        C296   1.276       .  A
O291       Cu798   1.991   1_545  S
O292        C295   1.280       .  A
O292       Cu294   2.013       .  S
Cu293       O789   2.017       .  S
Cu293       O792   1.994       .  S
Cu293      Cu798   2.376       .  S
Cu294       O794   2.000       .  S
Cu294       O795   2.006       .  S
Cu294      Cu797   2.375       .  S
C295        C469   1.481       .  S
C296        C498   1.475       .  S
C297        C465   1.476       .  S
C298        C461   1.478       .  S
O299        C309   1.281       .  A
O299       Cu811   2.026       .  S
O300        C310   1.274       .  A
O300       Cu307   1.996       .  S
O301        C311   1.284       .  A
O301       Cu307   2.044       .  S
O302        C312   1.277       .  A
O302       Cu811   1.999       .  S
O303        C312   1.280       .  A
O303       Cu308   2.027       .  S
O304        C311   1.274       .  A
O304       Cu812   1.995       .  S
O305        C310   1.282       .  A
O305       Cu812   2.033       .  S
O306        C309   1.275       .  A
O306       Cu308   1.999       .  S
Cu307       O803   1.994       .  S
Cu307       O806   2.044       .  S
Cu307      Cu812   2.372       .  S
Cu308       O808   2.031   1_545  S
Cu308       O809   1.998   1_545  S
Cu308      Cu811   2.373       .  S
C309        C457   1.478       .  S
C310        C478   1.479       .  S
C311        C453   1.482       .  S
C312        C449   1.480       .  S
C313        C314   1.396       .  A
C313        C318   1.406       .  A
C313        C445   1.480       .  S
C314        C315   1.396       .  A
C314        H319   1.085       .  S
C315        C316   1.409       .  A
C315        C470   1.483       .  S
C316        C317   1.411       .  A
C316        H320   1.083       .  S
C317        C318   1.414       .  A
C317        C441   1.493       .  S
C318        H321   1.082       .  S
O322        C332   1.278       .  A
O322      Cu1338   2.021       .  S
O323        C333   1.279       .  A
O323       Cu330   2.011       .  S
O324        C334   1.278       .  A
O324      Cu1338   2.018       .  S
O325        C335   1.278       .  A
O325       Cu330   2.002       .  S
O326        C335   1.278       .  A
O326      Cu1339   2.021   1_455  S
O327        C334   1.279       .  A
O327       Cu331   2.015       .  S
O328        C333   1.275       .  A
O328      Cu1339   2.001   1_455  S
O329        C332   1.281       .  A
O329       Cu331   2.025       .  S
Cu330      O1330   2.015   1_455  S
Cu330      O1332   2.009   1_455  S
Cu330     Cu1339   2.374   1_455  S
Cu331      O1334   2.008       .  S
Cu331      O1336   2.019       .  S
Cu331     Cu1338   2.372       .  S
C332        C434   1.487       .  S
C333        C430   1.473       .  S
C334        C437   1.483       .  S
C335        C446   1.480       .  S
C336        C337   1.413       .  A
C336        C341   1.406       .  A
C336        C438   1.491       .  S
C337        C338   1.411       .  A
C337        H342   1.082       .  S
C338        C339   1.399       .  A
C338        C458   1.483       .  S
C339        C340   1.402       .  A
C339        H343   1.083       .  S
C340        C341   1.402       .  A
C340        C425   1.483       .  S
C341        H344   1.084       .  S
O345        C355   1.280       .  A
O346        C356   1.280       .  A
O346       Cu353   2.029       .  S
O347        C357   1.280       .  A
O348        C358   1.278       .  A
O348       Cu353   2.006       .  S
O349        C358   1.277       .  A
O350        C357   1.275       .  A
O350       Cu354   1.993       .  S
O351        C356   1.277       .  A
O352        C355   1.278       .  A
O352       Cu354   2.012       .  S
C355        C442   1.482       .  S
C356        C473   1.476       .  S
C357        C418   1.472       .  S
C358        C421   1.472       .  S
O359        C369   1.278       .  A
O360        C370   1.277       .  A
O360       Cu367   2.005       .  S
O361        C371   1.276       .  A
O362        C372   1.278       .  A
O362       Cu367   2.016       .  S
O363        C372   1.279       .  A
O364        C371   1.281       .  A
O364       Cu368   2.031   1_556  S
O365        C370   1.279       .  A
O366        C369   1.277       .  A
O366       Cu368   2.006   1_556  S
C369        C426   1.474       .  S
C370        C493   1.476       .  S
C371        C409   1.480       .  S
C372        C413   1.479       .  S
C373        C374   1.403       .  A
C373        C378   1.418       .  A
C373        C454   1.493       .  S
C374        C375   1.397       .  A
C374        H379   1.085       .  S
C375        C376   1.403       .  A
C375        C417   1.484       .  S
C376        C377   1.403       .  A
C376        H380   1.083       .  S
C377        C378   1.415       .  A
C377        C433   1.494       .  S
C378        H381   1.080       .  S
C382        C383   1.406       .  A
C382        C387   1.404       .  A
C382        C485   1.488       .  S
C383        C384   1.402       .  A
C383        H388   1.082       .  S
C384        C385   1.407       .  A
C384        C414   1.487       .  S
C385        C386   1.406       .  A
C385        H389   1.082       .  S
C386        C387   1.408       .  A
C386        C450   1.488       .  S
C387        H390   1.082       .  S
C391        C392   1.399       .  A
C391        C396   1.411       .  A
C391        C466   1.485       .  S
C392        C393   1.396       .  A
C392        H397   1.085       .  S
C393        C394   1.406       .  A
C393        C429   1.479       .  S
C394        C395   1.405       .  A
C394        H398   1.084       .  S
C395        C396   1.413       .  A
C395        C410   1.492       .  S
C396        H399   1.080       .  S
C400        C401   1.404       .  A
C400        C405   1.406       .  A
C400        C422   1.482       .  S
C401        C402   1.408       .  A
C401        H406   1.082       .  S
C402        C403   1.402       .  A
C402        C462   1.486       .  S
C403        C404   1.406       .  A
C403        H407   1.083       .  S
C404        C405   1.399       .  A
C404        C481   1.485       .  S
C405        H408   1.083       .  S
C409        C410   1.345       .  D
C409        H411   1.085       .  S
C410        H412   1.087       .  S
C413        C414   1.346       .  D
C413        H415   1.085       .  S
C414        H416   1.087       .  S
C417        C418   1.343       .  D
C417        H419   1.087       .  S
C418        H420   1.086       .  S
C421        C422   1.345       .  D
C421        H423   1.086       .  S
C422        H424   1.087       .  S
C425        C426   1.347       .  D
C425        H427   1.087       .  S
C426        H428   1.086       .  S
C429        C430   1.341       .  D
C429        H431   1.087       .  S
C430        H432   1.086       .  S
C433        C434   1.347       .  D
C433        H435   1.087       .  S
C434        H436   1.085       .  S
C437        C438   1.347       .  D
C437        H439   1.085       .  S
C438        H440   1.087       .  S
C441        C442   1.348       .  D
C441        H443   1.087       .  S
C442        H444   1.085       .  S
C445        C446   1.344       .  D
C445        H447   1.087       .  S
C446        H448   1.086       .  S
C449        C450   1.349       .  D
C449        H451   1.085       .  S
C450        H452   1.087       .  S
C453        C454   1.342       .  D
C453        H455   1.085       .  S
C454        H456   1.087       .  S
C457        C458   1.341       .  D
C457        H459   1.086       .  S
C458        H460   1.087       .  S
C461        C462   1.346       .  D
C461        H463   1.085       .  S
C462        H464   1.087       .  S
C465        C466   1.342       .  D
C465        H467   1.085       .  S
C466        H468   1.087       .  S
C469        C470   1.343       .  D
C469        H471   1.086       .  S
C470        H472   1.087       .  S
C473        C474   1.348       .  D
C473        H475   1.086       .  S
C474        H476   1.086       .  S
C477        C478   1.341       .  D
C477        H479   1.087       .  S
C478        H480   1.086       .  S
C481        C482   1.342       .  D
C481        H483   1.087       .  S
C482        H484   1.085       .  S
C485        C486   1.348       .  D
C485        H487   1.087       .  S
C486        H488   1.085       .  S
C489        C490   1.344       .  D
C489        H491   1.087       .  S
C490        H492   1.086       .  S
C493        C494   1.347       .  D
C493        H495   1.086       .  S
C494        H496   1.087       .  S
C497        C498   1.348       .  D
C497        H499   1.087       .  S
C498        H500   1.085       .  S
C501        C502   1.343       .  D
C501        H503   1.086       .  S
C502        H504   1.087       .  S
C505        C506   1.402       .  A
C505        C510   1.394       .  A
C505        C749   1.475       .  S
C506        C507   1.400       .  A
C506        H511   1.084       .  S
C507        C508   1.409       .  A
C507        C754   1.478       .  S
C508        C509   1.404       .  A
C508        H512   1.083       .  S
C509        C510   1.405       .  A
C509        C746   1.481       .  S
C510        H513   1.084       .  S
O514        C524   1.276       .  A
O514      Cu1530   2.003   1_455  S
O515        C525   1.280       .  A
O515       Cu522   2.019       .  S
O516        C526   1.275       .  A
O516      Cu1530   1.999   1_455  S
O517        C527   1.280       .  A
O517       Cu522   2.010       .  S
O518        C527   1.277       .  A
O518      Cu1531   2.018       .  S
O519        C526   1.280       .  A
O519       Cu523   2.010       .  S
O520        C525   1.277       .  A
O520      Cu1531   2.012       .  S
O521        C524   1.279       .  A
O521       Cu523   2.010       .  S
Cu522      O1522   2.016       .  S
Cu522      O1524   2.009       .  S
Cu522     Cu1531   2.373       .  S
Cu523      O1526   2.019   1_455  S
Cu523      O1528   2.017   1_455  S
Cu523     Cu1530   2.374   1_455  S
C524        C753   1.474       .  S
C525        C742   1.481       .  S
C526        C734   1.472       .  S
C527        C738   1.483       .  S
C528        C529   1.400       .  A
C528        C533   1.408       .  A
C528        C741   1.491       .  S
C529        C530   1.406       .  A
C529        H534   1.083       .  S
C530        C531   1.406       .  A
C530        C726   1.492       .  S
C531        C532   1.413       .  A
C531        H535   1.082       .  S
C532        C533   1.409       .  A
C532        C729   1.494       .  S
C533        H536   1.082       .  S
O537        C547   1.282       .  A
O538        C548   1.279       .  A
O538       Cu545   2.006       .  S
O539        C549   1.279       .  A
O539       Cu545   2.004       .  S
O540        C550   1.274       .  A
O541        C550   1.279       .  A
O541       Cu546   2.007   1_565  S
O542        C549   1.276       .  A
O543        C548   1.275       .  A
O544        C547   1.274       .  A
O544       Cu546   1.991   1_565  S
C547        C721   1.474       .  S
C548        C750   1.468       .  S
C549        C717   1.472       .  S
C550        C713   1.466       .  S
O551        C561   1.278       .  A
O552        C562   1.278       .  A
O552       Cu559   2.018   1_565  S
O553        C563   1.278       .  A
O553       Cu559   2.018   1_565  S
O554        C564   1.281       .  A
O555        C564   1.276       .  A
O555       Cu560   2.003       .  S
O556        C563   1.279       .  A
O557        C562   1.280       .  A
O558        C561   1.280       .  A
O558       Cu560   2.030       .  S
C561        C709   1.485       .  S
C562        C730   1.484       .  S
C563        C705   1.481       .  S
C564        C701   1.481       .  S
C565        C566   1.406       .  A
C565        C570   1.413       .  A
C565        C697   1.493       .  S
C566        C567   1.407       .  A
C566        H571   1.083       .  S
C567        C568   1.397       .  A
C567        C722   1.483       .  S
C568        C569   1.398       .  A
C568        H572   1.085       .  S
C569        C570   1.412       .  A
C569        C693   1.484       .  S
C570        H573   1.082       .  S
O574        C584   1.277       .  A
O574      Cu1590   2.011       .  S
O575        C585   1.277       .  A
O575       Cu582   1.991       .  S
O576        C586   1.279       .  A
O576      Cu1590   2.023       .  S
O577        C587   1.281       .  A
O577       Cu582   2.029       .  S
O578        C587   1.278       .  A
O578      Cu1591   2.016       .  S
O579        C586   1.279       .  A
O579       Cu583   2.013       .  S
O580        C585   1.277       .  A
O580      Cu1591   2.009       .  S
O581        C584   1.279       .  A
O581       Cu583   2.010       .  S
Cu582      O1582   2.000   1_455  S
Cu582      O1584   2.028   1_455  S
Cu582     Cu1591   2.373       .  S
Cu583      O1586   2.009       .  S
Cu583      O1588   2.002       .  S
Cu583     Cu1590   2.374       .  S
C584        C686   1.478       .  S
C585        C682   1.470       .  S
C586        C689   1.483       .  S
C587        C698   1.485       .  S
C588        C589   1.411       .  A
C588        C593   1.403       .  A
C588        C690   1.489       .  S
C589        C590   1.412       .  A
C589        H594   1.081       .  S
C590        C591   1.407       .  A
C590        C710   1.491       .  S
C591        C592   1.406       .  A
C591        H595   1.083       .  S
C592        C593   1.402       .  A
C592        C677   1.489       .  S
C593        H596   1.085       .  S
O597        C607   1.282       .  A
O597       Cu857   2.026       .  S
O598        C608   1.280       .  A
O598       Cu605   2.031       .  S
O599        C609   1.277       .  A
O599       Cu857   2.005       .  S
O600        C610   1.279       .  A
O600       Cu605   2.013       .  S
O601        C610   1.277       .  A
O601       Cu858   2.010       .  S
O602        C609   1.278       .  A
O602       Cu606   2.012       .  S
O603        C608   1.276       .  A
O603       Cu858   2.000       .  S
O604        C607   1.275       .  A
O604       Cu606   2.003       .  S
Cu605       O849   2.021   1_554  S
Cu605       O851   2.020   1_554  S
Cu605      Cu858   2.374       .  S
Cu606       O853   2.008       .  S
Cu606       O855   2.004       .  S
Cu606      Cu857   2.374       .  S
C607        C694   1.479       .  S
C608        C725   1.477       .  S
C609        C670   1.474       .  S
C610        C673   1.478       .  S
O611        C621   1.279       .  A
O611       Cu871   2.024       .  S
O612        C622   1.275       .  A
O612       Cu619   1.989   1_554  S
O613        C623   1.273       .  A
O613       Cu871   1.980       .  S
O614        C624   1.277       .  A
O614       Cu619   2.013   1_554  S
O615        C624   1.279       .  A
O615       Cu872   2.009   1_554  S
O616        C623   1.279       .  A
O616       Cu620   2.014       .  S
O617        C622   1.279       .  A
O617       Cu872   2.018   1_554  S
O618        C621   1.278       .  A
O618       Cu620   2.006       .  S
Cu619       O863   2.000       .  S
Cu619       O865   2.006       .  S
Cu619      Cu872   2.375       .  S
Cu620       O867   2.014       .  S
Cu620       O869   2.001       .  S
Cu620      Cu871   2.376       .  S
C621        C678   1.481       .  S
C622        C745   1.467       .  S
C623        C661   1.463       .  S
C624        C665   1.478       .  S
C625        C626   1.411       .  A
C625        C630   1.408       .  A
C625        C706   1.493       .  S
C626        C627   1.405       .  A
C626        H631   1.081       .  S
C627        C628   1.403       .  A
C627        C669   1.487       .  S
C628        C629   1.398       .  A
C628        H632   1.083       .  S
C629        C630   1.407       .  A
C629        C685   1.484       .  S
C630        H633   1.083       .  S
C634        C635   1.401       .  A
C634        C639   1.411       .  A
C634        C737   1.489       .  S
C635        C636   1.397       .  A
C635        H640   1.085       .  S
C636        C637   1.405       .  A
C636        C666   1.482       .  S
C637        C638   1.406       .  A
C637        H641   1.084       .  S
C638        C639   1.415       .  A
C638        C702   1.491       .  S
C639        H642   1.080       .  S
C643        C644   1.404       .  A
C643        C648   1.397       .  A
C643        C718   1.477       .  S
C644        C645   1.403       .  A
C644        H649   1.084       .  S
C645        C646   1.405       .  A
C645        C681   1.477       .  S
C646        C647   1.398       .  A
C646        H650   1.083       .  S
C647        C648   1.404       .  A
C647        C662   1.477       .  S
C648        H651   1.084       .  S
C652        C653   1.402       .  A
C652        C657   1.410       .  A
C652        C674   1.485       .  S
C653        C654   1.403       .  A
C653        H658   1.084       .  S
C654        C655   1.394       .  A
C654        C714   1.474       .  S
C655        C656   1.397       .  A
C655        H659   1.085       .  S
C656        C657   1.409       .  A
C656        C733   1.476       .  S
C657        H660   1.082       .  S
C661        C662   1.340       .  D
C661        H663   1.086       .  S
C662        H664   1.087       .  S
C665        C666   1.344       .  D
C665        H667   1.086       .  S
C666        H668   1.087       .  S
C669        C670   1.348       .  D
C669        H671   1.087       .  S
C670        H672   1.085       .  S
C673        C674   1.345       .  D
C673        H675   1.085       .  S
C674        H676   1.087       .  S
C677        C678   1.348       .  D
C677        H679   1.087       .  S
C678        H680   1.085       .  S
C681        C682   1.344       .  D
C681        H683   1.087       .  S
C682        H684   1.086       .  S
C685        C686   1.344       .  D
C685        H687   1.087       .  S
C686        H688   1.086       .  S
C689        C690   1.348       .  D
C689        H691   1.085       .  S
C690        H692   1.087       .  S
C693        C694   1.342       .  D
C693        H695   1.087       .  S
C694        H696   1.086       .  S
C697        C698   1.347       .  D
C697        H699   1.087       .  S
C698        H700   1.086       .  S
C701        C702   1.345       .  D
C701        H703   1.086       .  S
C702        H704   1.087       .  S
C705        C706   1.349       .  D
C705        H707   1.084       .  S
C706        H708   1.087       .  S
C709        C710   1.349       .  D
C709        H711   1.085       .  S
C710        H712   1.087       .  S
C713        C714   1.339       .  D
C713        H715   1.087       .  S
C714        H716   1.087       .  S
C717        C718   1.342       .  D
C717        H719   1.086       .  S
C718        H720   1.087       .  S
C721        C722   1.341       .  D
C721        H723   1.086       .  S
C722        H724   1.087       .  S
C725        C726   1.347       .  D
C725        H727   1.086       .  S
C726        H728   1.086       .  S
C729        C730   1.348       .  D
C729        H731   1.087       .  S
C730        H732   1.085       .  S
C733        C734   1.339       .  D
C733        H735   1.087       .  S
C734        H736   1.086       .  S
C737        C738   1.346       .  D
C737        H739   1.087       .  S
C738        H740   1.084       .  S
C741        C742   1.346       .  D
C741        H743   1.087       .  S
C742        H744   1.085       .  S
C745        C746   1.343       .  D
C745        H747   1.087       .  S
C746        H748   1.087       .  S
C749        C750   1.340       .  D
C749        H751   1.087       .  S
C750        H752   1.087       .  S
C753        C754   1.342       .  D
C753        H755   1.086       .  S
C754        H756   1.087       .  S
C757        C758   1.403       .  A
C757        C762   1.391       .  A
C757       C1001   1.472       .  S
C758        C759   1.408       .  A
C758        H763   1.084       .  S
C759        C760   1.419       .  A
C759       C1006   1.495       .  S
C760        C761   1.410       .  A
C760        H764   1.080       .  S
C761        C762   1.394       .  A
C761        C998   1.480       .  S
C762        H765   1.085       .  S
O766        C776   1.274       .  A
O766      Cu1782   1.992   1_455  S
O767        C777   1.273       .  A
O767       Cu774   1.983       .  S
O768        C778   1.280       .  A
O768      Cu1782   2.016   1_455  S
O769        C779   1.284       .  A
O769       Cu774   2.039       .  S
O770        C779   1.271       .  A
O770      Cu1783   1.979       .  S
O771        C778   1.274       .  A
O771       Cu775   1.991   1_455  S
O772        C777   1.284       .  A
O772      Cu1783   2.052       .  S
O773        C776   1.283       .  A
O773       Cu775   2.043   1_455  S
Cu774      O1774   1.992       .  S
Cu774      O1776   2.038       .  S
Cu774     Cu1783   2.374       .  S
Cu775      O1778   1.989       .  S
Cu775      O1780   2.042       .  S
Cu775     Cu1782   2.374       .  S
C776       C1005   1.481       .  S
C777        C994   1.479       .  S
C778        C986   1.471       .  S
C779        C990   1.474       .  S
C780        C781   1.412       .  A
C780        C785   1.402       .  A
C780        C993   1.497       .  S
C781        C782   1.411       .  A
C781        H786   1.078       .  S
C782        C783   1.405       .  A
C782        C978   1.495       .  S
C783        C784   1.404       .  A
C783        H787   1.084       .  S
C784        C785   1.409       .  A
C784        C981   1.490       .  S
C785        H788   1.082       .  S
O789        C799   1.280       .  A
O790        C800   1.279       .  A
O790       Cu797   2.001       .  S
O791        C801   1.279       .  A
O791       Cu797   2.002       .  S
O792        C802   1.275       .  A
O793        C802   1.280       .  A
O793       Cu798   2.021       .  S
O794        C801   1.275       .  A
O795        C800   1.276       .  A
O796        C799   1.273       .  A
O796       Cu798   1.988       .  S
C799        C973   1.469       .  S
C800       C1002   1.472       .  S
C801        C969   1.470       .  S
C802        C965   1.471       .  S
O803        C813   1.276       .  A
O804        C814   1.280       .  A
O804       Cu811   2.027   1_565  S
O805        C815   1.276       .  A
O805       Cu811   2.006   1_565  S
O806        C816   1.283       .  A
O807        C816   1.274       .  A
O807       Cu812   1.991       .  S
O808        C815   1.282       .  A
O809        C814   1.275       .  A
O810        C813   1.281       .  A
O810       Cu812   2.035       .  S
C813        C961   1.482       .  S
C814        C982   1.476       .  S
C815        C957   1.482       .  S
C816        C953   1.480       .  S
C817        C818   1.403       .  A
C817        C822   1.411       .  A
C817        C949   1.487       .  S
C818        C819   1.405       .  A
C818        H823   1.083       .  S
C819        C820   1.397       .  A
C819        C974   1.479       .  S
C820        C821   1.398       .  A
C820        H824   1.085       .  S
C821        C822   1.410       .  A
C821        C945   1.481       .  S
C822        H825   1.082       .  S
O826        C836   1.277       .  A
O826      Cu1842   2.009       .  S
O827        C837   1.280       .  A
O827       Cu834   2.015       .  S
O828        C838   1.280       .  A
O828      Cu1842   2.021       .  S
O829        C839   1.279       .  A
O829       Cu834   2.016       .  S
O830        C839   1.277       .  A
O830      Cu1843   2.013   1_455  S
O831        C838   1.276       .  A
O831       Cu835   2.001       .  S
O832        C837   1.277       .  A
O832      Cu1843   2.013   1_455  S
O833        C836   1.279       .  A
O833       Cu835   2.011       .  S
Cu834      O1834   2.018   1_455  S
Cu834      O1836   2.020   1_455  S
Cu834     Cu1843   2.372   1_455  S
Cu835      O1838   2.001       .  S
Cu835      O1840   2.011       .  S
Cu835     Cu1842   2.375       .  S
C836        C938   1.475       .  S
C837        C934   1.480       .  S
C838        C941   1.476       .  S
C839        C950   1.480       .  S
C840        C841   1.405       .  A
C840        C845   1.410       .  A
C840        C942   1.489       .  S
C841        C842   1.406       .  A
C841        H846   1.082       .  S
C842        C843   1.406       .  A
C842        C962   1.489       .  S
C843        C844   1.408       .  A
C843        H847   1.083       .  S
C844        C845   1.403       .  A
C844        C929   1.492       .  S
C845        H848   1.082       .  S
O849        C859   1.281       .  A
O850        C860   1.281       .  A
O850       Cu857   2.033       .  S
O851        C861   1.279       .  A
O852        C862   1.276       .  A
O852       Cu857   1.992       .  S
O853        C862   1.277       .  A
O854        C861   1.279       .  A
O854       Cu858   2.015   1_556  S
O855        C860   1.276       .  A
O856        C859   1.275       .  A
O856       Cu858   1.998   1_556  S
C859        C946   1.475       .  S
C860        C977   1.481       .  S
C861        C922   1.480       .  S
C862        C925   1.470       .  S
O863        C873   1.276       .  A
O864        C874   1.282       .  A
O864       Cu871   2.021       .  S
O865        C875   1.277       .  A
O866        C876   1.273       .  A
O866       Cu871   1.988       .  S
O867        C876   1.280       .  A
O868        C875   1.277       .  A
O868       Cu872   2.009       .  S
O869        C874   1.274       .  A
O870        C873   1.281       .  A
O870       Cu872   2.031       .  S
C873        C930   1.479       .  S
C874        C997   1.479       .  S
C875        C913   1.472       .  S
C876        C917   1.469       .  S
C877        C878   1.413       .  A
C877        C882   1.404       .  A
C877        C958   1.491       .  S
C878        C879   1.409       .  A
C878        H883   1.082       .  S
C879        C880   1.408       .  A
C879        C921   1.493       .  S
C880        C881   1.400       .  A
C880        H884   1.083       .  S
C881        C882   1.404       .  A
C881        C937   1.483       .  S
C882        H885   1.083       .  S
C886        C887   1.396       .  A
C886        C891   1.413       .  A
C886        C989   1.487       .  S
C887        C888   1.395       .  A
C887        H892   1.085       .  S
C888        C889   1.406       .  A
C888        C918   1.476       .  S
C889        C890   1.404       .  A
C889        H893   1.083       .  S
C890        C891   1.415       .  A
C890        C954   1.493       .  S
C891        H894   1.080       .  S
C895        C896   1.402       .  A
C895        C900   1.394       .  A
C895        C970   1.475       .  S
C896        C897   1.403       .  A
C896        H901   1.084       .  S
C897        C898   1.412       .  A
C897        C933   1.486       .  S
C898        C899   1.408       .  A
C898        H902   1.083       .  S
C899        C900   1.404       .  A
C899        C914   1.487       .  S
C900        H903   1.083       .  S
C904        C905   1.399       .  A
C904        C909   1.401       .  A
C904        C926   1.476       .  S
C905        C906   1.407       .  A
C905        H910   1.082       .  S
C906        C907   1.404       .  A
C906        C966   1.487       .  S
C907        C908   1.408       .  A
C907        H911   1.083       .  S
C908        C909   1.398       .  A
C908        C985   1.478       .  S
C909        H912   1.083       .  S
C913        C914   1.348       .  D
C913        H915   1.085       .  S
C914        H916   1.087       .  S
C917        C918   1.339       .  D
C917        H919   1.086       .  S
C918        H920   1.087       .  S
C921        C922   1.350       .  D
C921        H923   1.087       .  S
C922        H924   1.085       .  S
C925        C926   1.344       .  D
C925        H927   1.086       .  S
C926        H928   1.087       .  S
C929        C930   1.346       .  D
C929        H931   1.087       .  S
C930        H932   1.085       .  S
C933        C934   1.344       .  D
C933        H935   1.087       .  S
C934        H936   1.086       .  S
C937        C938   1.345       .  D
C937        H939   1.087       .  S
C938        H940   1.086       .  S
C941        C942   1.345       .  D
C941        H943   1.085       .  S
C942        H944   1.087       .  S
C945        C946   1.341       .  D
C945        H947   1.087       .  S
C946        H948   1.086       .  S
C949        C950   1.346       .  D
C949        H951   1.087       .  S
C950        H952   1.085       .  S
C953        C954   1.344       .  D
C953        H955   1.085       .  S
C954        H956   1.087       .  S
C957        C958   1.345       .  D
C957        H959   1.085       .  S
C958        H960   1.087       .  S
C961        C962   1.350       .  D
C961        H963   1.085       .  S
C962        H964   1.087       .  S
C965        C966   1.345       .  D
C965        H967   1.085       .  S
C966        H968   1.087       .  S
C969        C970   1.341       .  D
C969        H971   1.086       .  S
C970        H972   1.087       .  S
C973        C974   1.340       .  D
C973        H975   1.086       .  S
C974        H976   1.087       .  S
C977        C978   1.347       .  D
C977        H979   1.084       .  S
C978        H980   1.087       .  S
C981        C982   1.345       .  D
C981        H983   1.087       .  S
C982        H984   1.085       .  S
C985        C986   1.340       .  D
C985        H987   1.087       .  S
C986        H988   1.086       .  S
C989        C990   1.338       .  D
C989        H991   1.088       .  S
C990        H992   1.085       .  S
C993        C994   1.344       .  D
C993        H995   1.087       .  S
C994        H996   1.084       .  S
C997        C998   1.340       .  D
C997        H999   1.086       .  S
C998       H1000   1.087       .  S
C1001      C1002   1.339       .  D
C1001      H1003   1.087       .  S
C1002      H1004   1.087       .  S
C1005      C1006   1.344       .  D
C1005      H1007   1.084       .  S
C1006      H1008   1.087       .  S
C1009      C1010   1.395       .  A
C1009      C1014   1.403       .  A
C1009      C1253   1.473       .  S
C1010      C1011   1.395       .  A
C1010      H1015   1.085       .  S
C1011      C1012   1.409       .  A
C1011      C1258   1.481       .  S
C1012      C1013   1.409       .  A
C1012      H1016   1.083       .  S
C1013      C1014   1.408       .  A
C1013      C1250   1.486       .  S
C1014      H1017   1.081       .  S
O1018      C1028   1.275       .  A
O1019      C1029   1.280       .  A
O1019     Cu1026   2.012       .  S
O1020      C1030   1.280       .  A
O1021      C1031   1.277       .  A
O1021     Cu1026   2.015       .  S
O1022      C1031   1.280       .  A
O1023      C1030   1.274       .  A
O1023     Cu1027   1.993       .  S
O1024      C1029   1.276       .  A
O1025      C1028   1.280       .  A
O1025     Cu1027   2.010       .  S
C1028      C1257   1.476       .  S
C1029      C1246   1.475       .  S
C1030      C1238   1.470       .  S
C1031      C1242   1.484       .  S
C1032      C1033   1.393       .  A
C1032      C1037   1.403       .  A
C1032      C1245   1.479       .  S
C1033      C1034   1.403       .  A
C1033      H1038   1.083       .  S
C1034      C1035   1.408       .  A
C1034      C1230   1.488       .  S
C1035      C1036   1.415       .  A
C1035      H1039   1.082       .  S
C1036      C1037   1.408       .  A
C1036      C1233   1.492       .  S
C1037      H1040   1.084       .  S
O1041      C1051   1.280       .  A
O1041     Cu1553   2.014       .  S
O1042      C1052   1.277       .  A
O1042     Cu1049   2.016       .  S
O1043      C1053   1.276       .  A
O1043     Cu1049   2.005       .  S
O1044      C1054   1.276       .  A
O1044     Cu1553   2.006       .  S
O1045      C1054   1.279       .  A
O1045     Cu1050   2.013       .  S
O1046      C1053   1.279       .  A
O1046     Cu1554   2.012       .  S
O1047      C1052   1.276       .  A
O1047     Cu1554   1.978       .  S
O1048      C1051   1.273       .  A
O1048     Cu1050   1.987       .  S
Cu1049     O1545   2.017   1_545  S
Cu1049     O1548   1.996   1_545  S
Cu1049    Cu1554   2.376       .  S
Cu1050     O1550   2.014       .  S
Cu1050     O1551   1.983       .  S
Cu1050    Cu1553   2.375       .  S
C1051      C1225   1.468       .  S
C1052      C1254   1.472       .  S
C1053      C1221   1.474       .  S
C1054      C1217   1.475       .  S
O1055      C1065   1.283       .  A
O1055     Cu1567   2.042       .  S
O1056      C1066   1.278       .  A
O1056     Cu1063   2.018       .  S
O1057      C1067   1.278       .  A
O1057     Cu1063   2.016       .  S
O1058      C1068   1.277       .  A
O1058     Cu1567   2.008       .  S
O1059      C1068   1.280       .  A
O1059     Cu1064   2.030   1_545  S
O1060      C1067   1.281       .  A
O1060     Cu1568   2.032       .  S
O1061      C1066   1.280       .  A
O1061     Cu1568   2.019       .  S
O1062      C1065   1.274       .  A
O1062     Cu1064   1.990   1_545  S
Cu1063     O1559   2.017       .  S
Cu1063     O1562   2.012       .  S
Cu1063    Cu1568   2.372       .  S
Cu1064     O1564   2.030       .  S
Cu1064     O1565   1.996       .  S
Cu1064    Cu1567   2.372   1_565  S
C1065      C1213   1.478       .  S
C1066      C1234   1.484       .  S
C1067      C1209   1.486       .  S
C1068      C1205   1.484       .  S
C1069      C1070   1.402       .  A
C1069      C1074   1.411       .  A
C1069      C1201   1.485       .  S
C1070      C1071   1.405       .  A
C1070      H1075   1.083       .  S
C1071      C1072   1.396       .  A
C1071      C1226   1.478       .  S
C1072      C1073   1.398       .  A
C1072      H1076   1.085       .  S
C1073      C1074   1.411       .  A
C1073      C1197   1.480       .  S
C1074      H1077   1.082       .  S
O1078      C1088   1.275       .  A
O1079      C1089   1.278       .  A
O1079     Cu1086   1.998       .  S
O1080      C1090   1.280       .  A
O1081      C1091   1.280       .  A
O1081     Cu1086   2.022       .  S
O1082      C1091   1.277       .  A
O1083      C1090   1.278       .  A
O1083     Cu1087   2.013       .  S
O1084      C1089   1.278       .  A
O1085      C1088   1.282       .  A
O1085     Cu1087   2.030       .  S
C1088      C1190   1.478       .  S
C1089      C1186   1.476       .  S
C1090      C1193   1.486       .  S
C1091      C1202   1.481       .  S
C1092      C1093   1.410       .  A
C1092      C1097   1.407       .  A
C1092      C1194   1.495       .  S
C1093      C1094   1.413       .  A
C1093      H1098   1.081       .  S
C1094      C1095   1.403       .  A
C1094      C1214   1.491       .  S
C1095      C1096   1.406       .  A
C1095      H1099   1.083       .  S
C1096      C1097   1.405       .  A
C1096      C1181   1.490       .  S
C1097      H1100   1.084       .  S
O1101      C1111   1.280       .  A
O1101     Cu1361   2.016       .  S
O1102      C1112   1.278       .  A
O1102     Cu1109   2.018       .  S
O1103      C1113   1.278       .  A
O1103     Cu1361   2.016       .  S
O1104      C1114   1.278       .  A
O1104     Cu1109   2.005       .  S
O1105      C1114   1.276       .  A
O1105     Cu1362   2.002       .  S
O1106      C1113   1.278       .  A
O1106     Cu1110   2.015       .  S
O1107      C1112   1.277       .  A
O1107     Cu1362   2.000       .  S
O1108      C1111   1.275       .  A
O1108     Cu1110   2.002       .  S
Cu1109     O1353   2.014   1_554  S
Cu1109     O1355   2.017   1_554  S
Cu1109    Cu1362   2.375       .  S
Cu1110     O1357   2.010       .  S
Cu1110     O1359   2.005       .  S
Cu1110    Cu1361   2.374       .  S
C1111      C1198   1.476       .  S
C1112      C1229   1.472       .  S
C1113      C1174   1.479       .  S
C1114      C1177   1.470       .  S
O1115      C1125   1.279       .  A
O1115     Cu1375   2.019       .  S
O1116      C1126   1.278       .  A
O1116     Cu1123   2.015   1_554  S
O1117      C1127   1.275       .  A
O1117     Cu1375   1.998       .  S
O1118      C1128   1.276       .  A
O1118     Cu1123   2.005   1_554  S
O1119      C1128   1.282       .  A
O1119     Cu1376   2.045   1_554  S
O1120      C1127   1.280       .  A
O1120     Cu1124   2.020       .  S
O1121      C1126   1.277       .  A
O1121     Cu1376   2.006   1_554  S
O1122      C1125   1.278       .  A
O1122     Cu1124   2.015       .  S
Cu1123     O1367   2.014       .  S
Cu1123     O1369   2.005       .  S
Cu1123    Cu1376   2.373       .  S
Cu1124     O1371   2.018       .  S
Cu1124     O1373   2.015       .  S
Cu1124    Cu1375   2.374       .  S
C1125      C1182   1.480       .  S
C1126      C1249   1.476       .  S
C1127      C1165   1.473       .  S
C1128      C1169   1.484       .  S
C1129      C1130   1.413       .  A
C1129      C1134   1.408       .  A
C1129      C1210   1.498       .  S
C1130      C1131   1.408       .  A
C1130      H1135   1.082       .  S
C1131      C1132   1.406       .  A
C1131      C1173   1.492       .  S
C1132      C1133   1.399       .  A
C1132      H1136   1.082       .  S
C1133      C1134   1.409       .  A
C1133      C1189   1.488       .  S
C1134      H1137   1.083       .  S
C1138      C1139   1.413       .  A
C1138      C1143   1.406       .  A
C1138      C1241   1.493       .  S
C1139      C1140   1.409       .  A
C1139      H1144   1.082       .  S
C1140      C1141   1.412       .  A
C1140      C1170   1.499       .  S
C1141      C1142   1.405       .  A
C1141      H1145   1.082       .  S
C1142      C1143   1.405       .  A
C1142      C1206   1.492       .  S
C1143      H1146   1.083       .  S
C1147      C1148   1.400       .  A
C1147      C1152   1.406       .  A
C1147      C1222   1.486       .  S
C1148      C1149   1.401       .  A
C1148      H1153   1.085       .  S
C1149      C1150   1.406       .  A
C1149      C1185   1.480       .  S
C1150      C1151   1.404       .  A
C1150      H1154   1.083       .  S
C1151      C1152   1.409       .  A
C1151      C1166   1.487       .  S
C1152      H1155   1.080       .  S
C1156      C1157   1.403       .  A
C1156      C1161   1.404       .  A
C1156      C1178   1.481       .  S
C1157      C1158   1.409       .  A
C1157      H1162   1.083       .  S
C1158      C1159   1.403       .  A
C1158      C1218   1.484       .  S
C1159      C1160   1.405       .  A
C1159      H1163   1.083       .  S
C1160      C1161   1.397       .  A
C1160      C1237   1.477       .  S
C1161      H1164   1.083       .  S
C1165      C1166   1.344       .  D
C1165      H1167   1.085       .  S
C1166      H1168   1.087       .  S
C1169      C1170   1.349       .  D
C1169      H1171   1.085       .  S
C1170      H1172   1.087       .  S
C1173      C1174   1.350       .  D
C1173      H1175   1.087       .  S
C1174      H1176   1.085       .  S
C1177      C1178   1.345       .  D
C1177      H1179   1.086       .  S
C1178      H1180   1.087       .  S
C1181      C1182   1.349       .  D
C1181      H1183   1.087       .  S
C1182      H1184   1.085       .  S
C1185      C1186   1.345       .  D
C1185      H1187   1.087       .  S
C1186      H1188   1.086       .  S
C1189      C1190   1.343       .  D
C1189      H1191   1.087       .  S
C1190      H1192   1.086       .  S
C1193      C1194   1.351       .  D
C1193      H1195   1.085       .  S
C1194      H1196   1.087       .  S
C1197      C1198   1.341       .  D
C1197      H1199   1.087       .  S
C1198      H1200   1.086       .  S
C1201      C1202   1.344       .  D
C1201      H1203   1.087       .  S
C1202      H1204   1.086       .  S
C1205      C1206   1.351       .  D
C1205      H1207   1.085       .  S
C1206      H1208   1.087       .  S
C1209      C1210   1.349       .  D
C1209      H1211   1.084       .  S
C1210      H1212   1.087       .  S
C1213      C1214   1.343       .  D
C1213      H1215   1.086       .  S
C1214      H1216   1.087       .  S
C1217      C1218   1.344       .  D
C1217      H1219   1.085       .  S
C1218      H1220   1.087       .  S
C1221      C1222   1.345       .  D
C1221      H1223   1.085       .  S
C1222      H1224   1.087       .  S
C1225      C1226   1.340       .  D
C1225      H1227   1.086       .  S
C1226      H1228   1.087       .  S
C1229      C1230   1.348       .  D
C1229      H1231   1.086       .  S
C1230      H1232   1.086       .  S
C1233      C1234   1.347       .  D
C1233      H1235   1.087       .  S
C1234      H1236   1.085       .  S
C1237      C1238   1.340       .  D
C1237      H1239   1.087       .  S
C1238      H1240   1.087       .  S
C1241      C1242   1.347       .  D
C1241      H1243   1.087       .  S
C1242      H1244   1.085       .  S
C1245      C1246   1.341       .  D
C1245      H1247   1.087       .  S
C1246      H1248   1.086       .  S
C1249      C1250   1.348       .  D
C1249      H1251   1.085       .  S
C1250      H1252   1.087       .  S
C1253      C1254   1.343       .  D
C1253      H1255   1.088       .  S
C1254      H1256   1.086       .  S
C1257      C1258   1.341       .  D
C1257      H1259   1.085       .  S
C1258      H1260   1.087       .  S
C1261      C1262   1.396       .  A
C1261      C1266   1.404       .  A
C1261      C1505   1.477       .  S
C1262      C1263   1.397       .  A
C1262      H1267   1.085       .  S
C1263      C1264   1.410       .  A
C1263      C1510   1.484       .  S
C1264      C1265   1.409       .  A
C1264      H1268   1.083       .  S
C1265      C1266   1.410       .  A
C1265      C1502   1.489       .  S
C1266      H1269   1.081       .  S
O1270      C1280   1.275       .  A
O1271      C1281   1.274       .  A
O1271     Cu1278   1.992       .  S
O1272      C1282   1.280       .  A
O1273      C1283   1.282       .  A
O1273     Cu1278   2.032       .  S
O1274      C1283   1.273       .  A
O1275      C1282   1.275       .  A
O1275     Cu1279   2.001       .  S
O1276      C1281   1.283       .  A
O1277      C1280   1.281       .  A
O1277     Cu1279   2.016       .  S
C1280      C1509   1.477       .  S
C1281      C1498   1.479       .  S
C1282      C1490   1.473       .  S
C1283      C1494   1.476       .  S
C1284      C1285   1.411       .  A
C1284      C1289   1.404       .  A
C1284      C1497   1.496       .  S
C1285      C1286   1.410       .  A
C1285      H1290   1.078       .  S
C1286      C1287   1.404       .  A
C1286      C1482   1.492       .  S
C1287      C1288   1.403       .  A
C1287      H1291   1.084       .  S
C1288      C1289   1.410       .  A
C1288      C1485   1.488       .  S
C1289      H1292   1.083       .  S
O1293      C1303   1.279       .  A
O1293     Cu1805   2.006       .  S
O1294      C1304   1.277       .  A
O1294     Cu1301   2.014   1_545  S
O1295      C1305   1.277       .  A
O1295     Cu1301   2.012   1_545  S
O1296      C1306   1.275       .  A
O1296     Cu1805   1.998       .  S
O1297      C1306   1.280       .  A
O1297     Cu1302   2.025       .  S
O1298      C1305   1.281       .  A
O1298     Cu1806   2.027       .  S
O1299      C1304   1.277       .  A
O1299     Cu1806   1.990       .  S
O1300      C1303   1.274       .  A
O1300     Cu1302   1.988       .  S
Cu1301     O1797   2.009       .  S
Cu1301     O1800   1.999       .  S
Cu1301    Cu1806   2.374   1_565  S
Cu1302     O1802   2.022       .  S
Cu1302     O1803   1.990       .  S
Cu1302    Cu1805   2.376       .  S
C1303      C1477   1.466       .  S
C1304      C1506   1.474       .  S
C1305      C1473   1.484       .  S
C1306      C1469   1.475       .  S
O1307      C1317   1.282       .  A
O1307     Cu1819   2.034       .  S
O1308      C1318   1.281       .  A
O1308     Cu1315   2.031       .  S
O1309      C1319   1.276       .  A
O1309     Cu1315   2.006       .  S
O1310      C1320   1.278       .  A
O1310     Cu1819   2.010       .  S
O1311      C1320   1.280       .  A
O1311     Cu1316   2.033       .  S
O1312      C1319   1.281       .  A
O1312     Cu1820   2.030       .  S
O1313      C1318   1.275       .  A
O1313     Cu1820   1.994       .  S
O1314      C1317   1.275       .  A
O1314     Cu1316   1.999       .  S
Cu1315     O1811   2.027       .  S
Cu1315     O1814   2.006       .  S
Cu1315    Cu1820   2.373       .  S
Cu1316     O1816   2.038   1_545  S
Cu1316     O1817   1.998   1_545  S
Cu1316    Cu1819   2.372       .  S
C1317      C1465   1.480       .  S
C1318      C1486   1.476       .  S
C1319      C1461   1.481       .  S
C1320      C1457   1.486       .  S
C1321      C1322   1.400       .  A
C1321      C1326   1.410       .  A
C1321      C1453   1.481       .  S
C1322      C1323   1.403       .  A
C1322      H1327   1.084       .  S
C1323      C1324   1.395       .  A
C1323      C1478   1.475       .  S
C1324      C1325   1.398       .  A
C1324      H1328   1.085       .  S
C1325      C1326   1.410       .  A
C1325      C1449   1.478       .  S
C1326      H1329   1.082       .  S
O1330      C1340   1.277       .  A
O1331      C1341   1.279       .  A
O1331     Cu1338   2.011       .  S
O1332      C1342   1.276       .  A
O1333      C1343   1.280       .  A
O1333     Cu1338   2.014       .  S
O1334      C1343   1.276       .  A
O1335      C1342   1.281       .  A
O1335     Cu1339   2.025       .  S
O1336      C1341   1.278       .  A
O1337      C1340   1.278       .  A
O1337     Cu1339   2.004       .  S
C1340      C1442   1.477       .  S
C1341      C1438   1.480       .  S
C1342      C1445   1.482       .  S
C1343      C1454   1.477       .  S
C1344      C1345   1.413       .  A
C1344      C1349   1.403       .  A
C1344      C1446   1.491       .  S
C1345      C1346   1.413       .  A
C1345      H1350   1.080       .  S
C1346      C1347   1.403       .  A
C1346      C1466   1.490       .  S
C1347      C1348   1.404       .  A
C1347      H1351   1.083       .  S
C1348      C1349   1.400       .  A
C1348      C1433   1.483       .  S
C1349      H1352   1.085       .  S
O1353      C1363   1.280       .  A
O1354      C1364   1.280       .  A
O1354     Cu1361   2.023       .  S
O1355      C1365   1.278       .  A
O1356      C1366   1.277       .  A
O1356     Cu1361   2.004       .  S
O1357      C1366   1.278       .  A
O1358      C1365   1.278       .  A
O1358     Cu1362   2.010   1_556  S
O1359      C1364   1.276       .  A
O1360      C1363   1.275       .  A
O1360     Cu1362   2.001   1_556  S
C1363      C1450   1.475       .  S
C1364      C1481   1.478       .  S
C1365      C1426   1.477       .  S
C1366      C1429   1.473       .  S
O1367      C1377   1.278       .  A
O1368      C1378   1.278       .  A
O1368     Cu1375   2.016       .  S
O1369      C1379   1.276       .  A
O1370      C1380   1.275       .  A
O1370     Cu1375   2.000       .  S
O1371      C1380   1.280       .  A
O1372      C1379   1.282       .  A
O1372     Cu1376   2.041       .  S
O1373      C1378   1.278       .  A
O1374      C1377   1.277       .  A
O1374     Cu1376   2.004       .  S
C1377      C1434   1.475       .  S
C1378      C1501   1.479       .  S
C1379      C1417   1.484       .  S
C1380      C1421   1.475       .  S
C1381      C1382   1.413       .  A
C1381      C1386   1.405       .  A
C1381      C1462   1.492       .  S
C1382      C1383   1.408       .  A
C1382      H1387   1.082       .  S
C1383      C1384   1.406       .  A
C1383      C1425   1.492       .  S
C1384      C1385   1.399       .  A
C1384      H1388   1.082       .  S
C1385      C1386   1.405       .  A
C1385      C1441   1.484       .  S
C1386      H1389   1.083       .  S
C1390      C1391   1.399       .  A
C1390      C1395   1.412       .  A
C1390      C1493   1.485       .  S
C1391      C1392   1.399       .  A
C1391      H1396   1.085       .  S
C1392      C1393   1.407       .  A
C1392      C1422   1.484       .  S
C1393      C1394   1.407       .  A
C1393      H1397   1.083       .  S
C1394      C1395   1.411       .  A
C1394      C1458   1.493       .  S
C1395      H1398   1.081       .  S
C1399      C1400   1.402       .  A
C1399      C1404   1.412       .  A
C1399      C1474   1.492       .  S
C1400      C1401   1.400       .  A
C1400      H1405   1.085       .  S
C1401      C1402   1.406       .  A
C1401      C1437   1.486       .  S
C1402      C1403   1.407       .  A
C1402      H1406   1.083       .  S
C1403      C1404   1.416       .  A
C1403      C1418   1.495       .  S
C1404      H1407   1.080       .  S
C1408      C1409   1.402       .  A
C1408      C1413   1.404       .  A
C1408      C1430   1.482       .  S
C1409      C1410   1.409       .  A
C1409      H1414   1.082       .  S
C1410      C1411   1.404       .  A
C1410      C1470   1.488       .  S
C1411      C1412   1.407       .  A
C1411      H1415   1.083       .  S
C1412      C1413   1.399       .  A
C1412      C1489   1.481       .  S
C1413      H1416   1.083       .  S
C1417      C1418   1.346       .  D
C1417      H1419   1.085       .  S
C1418      H1420   1.087       .  S
C1421      C1422   1.343       .  D
C1421      H1423   1.086       .  S
C1422      H1424   1.087       .  S
C1425      C1426   1.349       .  D
C1425      H1427   1.087       .  S
C1426      H1428   1.085       .  S
C1429      C1430   1.346       .  D
C1429      H1431   1.086       .  S
C1430      H1432   1.087       .  S
C1433      C1434   1.346       .  D
C1433      H1435   1.087       .  S
C1434      H1436   1.086       .  S
C1437      C1438   1.346       .  D
C1437      H1439   1.087       .  S
C1438      H1440   1.086       .  S
C1441      C1442   1.345       .  D
C1441      H1443   1.087       .  S
C1442      H1444   1.085       .  S
C1445      C1446   1.346       .  D
C1445      H1447   1.085       .  S
C1446      H1448   1.087       .  S
C1449      C1450   1.341       .  D
C1449      H1451   1.087       .  S
C1450      H1452   1.086       .  S
C1453      C1454   1.343       .  D
C1453      H1455   1.087       .  S
C1454      H1456   1.086       .  S
C1457      C1458   1.350       .  D
C1457      H1459   1.085       .  S
C1458      H1460   1.087       .  S
C1461      C1462   1.345       .  D
C1461      H1463   1.085       .  S
C1462      H1464   1.087       .  S
C1465      C1466   1.344       .  D
C1465      H1467   1.086       .  S
C1466      H1468   1.087       .  S
C1469      C1470   1.345       .  D
C1469      H1471   1.085       .  S
C1470      H1472   1.087       .  S
C1473      C1474   1.346       .  D
C1473      H1475   1.085       .  S
C1474      H1476   1.087       .  S
C1477      C1478   1.340       .  D
C1477      H1479   1.086       .  S
C1478      H1480   1.087       .  S
C1481      C1482   1.346       .  D
C1481      H1483   1.084       .  S
C1482      H1484   1.087       .  S
C1485      C1486   1.344       .  D
C1485      H1487   1.087       .  S
C1486      H1488   1.086       .  S
C1489      C1490   1.342       .  D
C1489      H1491   1.087       .  S
C1490      H1492   1.086       .  S
C1493      C1494   1.341       .  D
C1493      H1495   1.087       .  S
C1494      H1496   1.086       .  S
C1497      C1498   1.346       .  D
C1497      H1499   1.087       .  S
C1498      H1500   1.085       .  S
C1501      C1502   1.349       .  D
C1501      H1503   1.085       .  S
C1502      H1504   1.087       .  S
C1505      C1506   1.343       .  D
C1505      H1507   1.087       .  S
C1506      H1508   1.086       .  S
C1509      C1510   1.342       .  D
C1509      H1511   1.085       .  S
C1510      H1512   1.087       .  S
C1513      C1514   1.397       .  A
C1513      C1518   1.401       .  A
C1513      C1757   1.474       .  S
C1514      C1515   1.398       .  A
C1514      H1519   1.085       .  S
C1515      C1516   1.408       .  A
C1515      C1762   1.480       .  S
C1516      C1517   1.409       .  A
C1516      H1520   1.083       .  S
C1517      C1518   1.408       .  A
C1517      C1754   1.486       .  S
C1518      H1521   1.081       .  S
O1522      C1532   1.277       .  A
O1523      C1533   1.280       .  A
O1523     Cu1530   2.008       .  S
O1524      C1534   1.276       .  A
O1525      C1535   1.278       .  A
O1525     Cu1530   2.002       .  S
O1526      C1535   1.278       .  A
O1527      C1534   1.280       .  A
O1527     Cu1531   2.013       .  S
O1528      C1533   1.277       .  A
O1529      C1532   1.279       .  A
O1529     Cu1531   2.005       .  S
C1532      C1761   1.478       .  S
C1533      C1750   1.483       .  S
C1534      C1742   1.478       .  S
C1535      C1746   1.480       .  S
C1536      C1537   1.396       .  A
C1536      C1541   1.411       .  A
C1536      C1749   1.484       .  S
C1537      C1538   1.392       .  A
C1537      H1542   1.085       .  S
C1538      C1539   1.403       .  A
C1538      C1734   1.475       .  S
C1539      C1540   1.406       .  A
C1539      H1543   1.084       .  S
C1540      C1541   1.419       .  A
C1540      C1737   1.493       .  S
C1541      H1544   1.081       .  S
O1545      C1555   1.281       .  A
O1546      C1556   1.278       .  A
O1546     Cu1553   2.015       .  S
O1547      C1557   1.278       .  A
O1547     Cu1553   2.012       .  S
O1548      C1558   1.275       .  A
O1549      C1558   1.279       .  A
O1549     Cu1554   2.006   1_565  S
O1550      C1557   1.278       .  A
O1551      C1556   1.276       .  A
O1552      C1555   1.273       .  A
O1552     Cu1554   1.988   1_565  S
C1555      C1729   1.470       .  S
C1556      C1758   1.471       .  S
C1557      C1725   1.478       .  S
C1558      C1721   1.469       .  S
O1559      C1569   1.280       .  A
O1560      C1570   1.283       .  A
O1560     Cu1567   2.044   1_565  S
O1561      C1571   1.275       .  A
O1561     Cu1567   2.003   1_565  S
O1562      C1572   1.278       .  A
O1563      C1572   1.279       .  A
O1563     Cu1568   2.023       .  S
O1564      C1571   1.282       .  A
O1565      C1570   1.274       .  A
O1566      C1569   1.278       .  A
O1566     Cu1568   2.018       .  S
C1569      C1717   1.483       .  S
C1570      C1738   1.482       .  S
C1571      C1713   1.480       .  S
C1572      C1709   1.482       .  S
C1573      C1574   1.405       .  A
C1573      C1578   1.412       .  A
C1573      C1705   1.486       .  S
C1574      C1575   1.405       .  A
C1574      H1579   1.084       .  S
C1575      C1576   1.393       .  A
C1575      C1730   1.476       .  S
C1576      C1577   1.397       .  A
C1576      H1580   1.085       .  S
C1577      C1578   1.408       .  A
C1577      C1701   1.477       .  S
C1578      H1581   1.082       .  S
O1582      C1592   1.275       .  A
O1583      C1593   1.278       .  A
O1583     Cu1590   2.001       .  S
O1584      C1594   1.279       .  A
O1585      C1595   1.280       .  A
O1585     Cu1590   2.019       .  S
O1586      C1595   1.277       .  A
O1587      C1594   1.280       .  A
O1587     Cu1591   2.019   1_655  S
O1588      C1593   1.276       .  A
O1589      C1592   1.279       .  A
O1589     Cu1591   2.016   1_655  S
C1592      C1694   1.474       .  S
C1593      C1690   1.469       .  S
C1594      C1697   1.488       .  S
C1595      C1706   1.479       .  S
C1596      C1597   1.413       .  A
C1596      C1601   1.405       .  A
C1596      C1698   1.493       .  S
C1597      C1598   1.413       .  A
C1597      H1602   1.082       .  S
C1598      C1599   1.404       .  A
C1598      C1718   1.486       .  S
C1599      C1600   1.402       .  A
C1599      H1603   1.083       .  S
C1600      C1601   1.402       .  A
C1600      C1685   1.486       .  S
C1601      H1604   1.085       .  S
O1605      C1615   1.279       .  A
O1605     Cu1865   1.998       .  S
O1606      C1616   1.275       .  A
O1606     Cu1613   2.001   1_554  S
O1607      C1617   1.279       .  A
O1607     Cu1865   2.022       .  S
O1608      C1618   1.281       .  A
O1608     Cu1613   2.028   1_554  S
O1609      C1618   1.276       .  A
O1609     Cu1866   2.003   1_554  S
O1610      C1617   1.277       .  A
O1610     Cu1614   2.007       .  S
O1611      C1616   1.279       .  A
O1611     Cu1866   2.005   1_554  S
O1612      C1615   1.277       .  A
O1612     Cu1614   2.015       .  S
Cu1613     O1857   1.994       .  S
Cu1613     O1859   2.037       .  S
Cu1613    Cu1866   2.374       .  S
Cu1614     O1861   2.000       .  S
Cu1614     O1863   2.019       .  S
Cu1614    Cu1865   2.374       .  S
C1615      C1702   1.477       .  S
C1616      C1733   1.473       .  S
C1617      C1678   1.477       .  S
C1618      C1681   1.480       .  S
O1619      C1629   1.281       .  A
O1619     Cu1879   2.036       .  S
O1620      C1630   1.278       .  A
O1620     Cu1627   2.014       .  S
O1621      C1631   1.272       .  A
O1621     Cu1879   1.979       .  S
O1622      C1632   1.275       .  A
O1622     Cu1627   2.001       .  S
O1623      C1632   1.280       .  A
O1623     Cu1880   2.023       .  S
O1624      C1631   1.283       .  A
O1624     Cu1628   2.039       .  S
O1625      C1630   1.277       .  A
O1625     Cu1880   2.000       .  S
O1626      C1629   1.275       .  A
O1626     Cu1628   1.988       .  S
Cu1627     O1871   2.017   1_554  S
Cu1627     O1873   1.999   1_554  S
Cu1627    Cu1880   2.375       .  S
Cu1628     O1875   2.040       .  S
Cu1628     O1877   1.997       .  S
Cu1628    Cu1879   2.373       .  S
C1629      C1686   1.480       .  S
C1630      C1753   1.474       .  S
C1631      C1669   1.472       .  S
C1632      C1673   1.476       .  S
C1633      C1634   1.412       .  A
C1633      C1638   1.402       .  A
C1633      C1714   1.489       .  S
C1634      C1635   1.409       .  A
C1634      H1639   1.083       .  S
C1635      C1636   1.408       .  A
C1635      C1677   1.494       .  S
C1636      C1637   1.400       .  A
C1636      H1640   1.082       .  S
C1637      C1638   1.405       .  A
C1637      C1693   1.485       .  S
C1638      H1641   1.083       .  S
C1642      C1643   1.403       .  A
C1642      C1647   1.410       .  A
C1642      C1745   1.485       .  S
C1643      C1644   1.397       .  A
C1643      H1648   1.085       .  S
C1644      C1645   1.405       .  A
C1644      C1674   1.485       .  S
C1645      C1646   1.405       .  A
C1645      H1649   1.083       .  S
C1646      C1647   1.411       .  A
C1646      C1710   1.488       .  S
C1647      H1650   1.081       .  S
C1651      C1652   1.407       .  A
C1651      C1656   1.405       .  A
C1651      C1726   1.488       .  S
C1652      C1653   1.401       .  A
C1652      H1657   1.083       .  S
C1653      C1654   1.404       .  A
C1653      C1689   1.478       .  S
C1654      C1655   1.397       .  A
C1654      H1658   1.084       .  S
C1655      C1656   1.409       .  A
C1655      C1670   1.483       .  S
C1656      H1659   1.084       .  S
C1660      C1661   1.404       .  A
C1660      C1665   1.414       .  A
C1660      C1682   1.487       .  S
C1661      C1662   1.403       .  A
C1661      H1666   1.084       .  S
C1662      C1663   1.394       .  A
C1662      C1722   1.475       .  S
C1663      C1664   1.397       .  A
C1663      H1667   1.085       .  S
C1664      C1665   1.410       .  A
C1664      C1741   1.479       .  S
C1665      H1668   1.082       .  S
C1669      C1670   1.339       .  D
C1669      H1671   1.087       .  S
C1670      H1672   1.087       .  S
C1673      C1674   1.343       .  D
C1673      H1675   1.086       .  S
C1674      H1676   1.087       .  S
C1677      C1678   1.349       .  D
C1677      H1679   1.087       .  S
C1678      H1680   1.084       .  S
C1681      C1682   1.344       .  D
C1681      H1683   1.086       .  S
C1682      H1684   1.087       .  S
C1685      C1686   1.350       .  D
C1685      H1687   1.087       .  S
C1686      H1688   1.085       .  S
C1689      C1690   1.343       .  D
C1689      H1691   1.087       .  S
C1690      H1692   1.086       .  S
C1693      C1694   1.344       .  D
C1693      H1695   1.087       .  S
C1694      H1696   1.085       .  S
C1697      C1698   1.348       .  D
C1697      H1699   1.085       .  S
C1698      H1700   1.087       .  S
C1701      C1702   1.342       .  D
C1701      H1703   1.087       .  S
C1702      H1704   1.086       .  S
C1705      C1706   1.345       .  D
C1705      H1707   1.087       .  S
C1706      H1708   1.086       .  S
C1709      C1710   1.347       .  D
C1709      H1711   1.086       .  S
C1710      H1712   1.087       .  S
C1713      C1714   1.344       .  D
C1713      H1715   1.086       .  S
C1714      H1716   1.087       .  S
C1717      C1718   1.345       .  D
C1717      H1719   1.086       .  S
C1718      H1720   1.087       .  S
C1721      C1722   1.340       .  D
C1721      H1723   1.087       .  S
C1722      H1724   1.087       .  S
C1725      C1726   1.348       .  D
C1725      H1727   1.085       .  S
C1726      H1728   1.087       .  S
C1729      C1730   1.339       .  D
C1729      H1731   1.087       .  S
C1730      H1732   1.087       .  S
C1733      C1734   1.340       .  D
C1733      H1735   1.086       .  S
C1734      H1736   1.087       .  S
C1737      C1738   1.344       .  D
C1737      H1739   1.087       .  S
C1738      H1740   1.085       .  S
C1741      C1742   1.341       .  D
C1741      H1743   1.087       .  S
C1742      H1744   1.086       .  S
C1745      C1746   1.346       .  D
C1745      H1747   1.087       .  S
C1746      H1748   1.085       .  S
C1749      C1750   1.343       .  D
C1749      H1751   1.088       .  S
C1750      H1752   1.086       .  S
C1753      C1754   1.348       .  D
C1753      H1755   1.085       .  S
C1754      H1756   1.087       .  S
C1757      C1758   1.344       .  D
C1757      H1759   1.087       .  S
C1758      H1760   1.086       .  S
C1761      C1762   1.343       .  D
C1761      H1763   1.086       .  S
C1762      H1764   1.087       .  S
C1765      C1766   1.399       .  A
C1765      C1770   1.400       .  A
C1765      C2009   1.477       .  S
C1766      C1767   1.402       .  A
C1766      H1771   1.085       .  S
C1767      C1768   1.417       .  A
C1767      C2014   1.492       .  S
C1768      C1769   1.415       .  A
C1768      H1772   1.081       .  S
C1769      C1770   1.398       .  A
C1769      C2006   1.488       .  S
C1770      H1773   1.083       .  S
O1774      C1784   1.273       .  A
O1775      C1785   1.274       .  A
O1775     Cu1782   1.987       .  S
O1776      C1786   1.282       .  A
O1777      C1787   1.279       .  A
O1777     Cu1782   2.018       .  S
O1778      C1787   1.276       .  A
O1779      C1786   1.272       .  A
O1779     Cu1783   1.976       .  S
O1780      C1785   1.282       .  A
O1781      C1784   1.284       .  A
O1781     Cu1783   2.048       .  S
C1784      C2013   1.482       .  S
C1785      C2002   1.475       .  S
C1786      C1994   1.471       .  S
C1787      C1998   1.473       .  S
C1788      C1789   1.406       .  A
C1788      C1793   1.403       .  A
C1788      C2001   1.490       .  S
C1789      C1790   1.400       .  A
C1789      H1794   1.084       .  S
C1790      C1791   1.408       .  A
C1790      C1986   1.487       .  S
C1791      C1792   1.407       .  A
C1791      H1795   1.083       .  S
C1792      C1793   1.413       .  A
C1792      C1989   1.492       .  S
C1793      H1796   1.082       .  S
O1797      C1807   1.280       .  A
O1798      C1808   1.277       .  A
O1798     Cu1805   2.009       .  S
O1799      C1809   1.275       .  A
O1799     Cu1805   2.000       .  S
O1800      C1810   1.276       .  A
O1801      C1810   1.280       .  A
O1801     Cu1806   2.021   1_565  S
O1802      C1809   1.280       .  A
O1803      C1808   1.276       .  A
O1804      C1807   1.274       .  A
O1804     Cu1806   1.998   1_565  S
C1807      C1981   1.473       .  S
C1808      C2010   1.469       .  S
C1809      C1977   1.476       .  S
C1810      C1973   1.473       .  S
O1811      C1821   1.281       .  A
O1812      C1822   1.282       .  A
O1812     Cu1819   2.037   1_565  S
O1813      C1823   1.276       .  A
O1813     Cu1819   2.007   1_565  S
O1814      C1824   1.277       .  A
O1815      C1824   1.280       .  A
O1815     Cu1820   2.027       .  S
O1816      C1823   1.282       .  A
O1817      C1822   1.275       .  A
O1818      C1821   1.274       .  A
O1818     Cu1820   1.995       .  S
C1821      C1969   1.475       .  S
C1822      C1990   1.479       .  S
C1823      C1965   1.484       .  S
C1824      C1961   1.482       .  S
C1825      C1826   1.406       .  A
C1825      C1830   1.410       .  A
C1825      C1957   1.487       .  S
C1826      C1827   1.407       .  A
C1826      H1831   1.083       .  S
C1827      C1828   1.395       .  A
C1827      C1982   1.476       .  S
C1828      C1829   1.395       .  A
C1828      H1832   1.085       .  S
C1829      C1830   1.404       .  A
C1829      C1953   1.475       .  S
C1830      H1833   1.081       .  S
O1834      C1844   1.278       .  A
O1835      C1845   1.278       .  A
O1835     Cu1842   2.005       .  S
O1836      C1846   1.278       .  A
O1837      C1847   1.279       .  A
O1837     Cu1842   2.019       .  S
O1838      C1847   1.276       .  A
O1839      C1846   1.279       .  A
O1839     Cu1843   2.019       .  S
O1840      C1845   1.277       .  A
O1841      C1844   1.279       .  A
O1841     Cu1843   2.014       .  S
C1844      C1946   1.481       .  S
C1845      C1942   1.475       .  S
C1846      C1949   1.483       .  S
C1847      C1958   1.474       .  S
C1848      C1849   1.412       .  A
C1848      C1853   1.408       .  A
C1848      C1950   1.494       .  S
C1849      C1850   1.410       .  A
C1849      H1854   1.080       .  S
C1850      C1851   1.398       .  A
C1850      C1970   1.484       .  S
C1851      C1852   1.402       .  A
C1851      H1855   1.083       .  S
C1852      C1853   1.404       .  A
C1852      C1937   1.484       .  S
C1853      H1856   1.084       .  S
O1857      C1867   1.278       .  A
O1858      C1868   1.277       .  A
O1858     Cu1865   2.009       .  S
O1859      C1869   1.281       .  A
O1860      C1870   1.279       .  A
O1860     Cu1865   2.012       .  S
O1861      C1870   1.276       .  A
O1862      C1869   1.278       .  A
O1862     Cu1866   2.009       .  S
O1863      C1868   1.280       .  A
O1864      C1867   1.276       .  A
O1864     Cu1866   2.005       .  S
C1867      C1954   1.471       .  S
C1868      C1985   1.480       .  S
C1869      C1930   1.483       .  S
C1870      C1933   1.472       .  S
O1871      C1881   1.279       .  A
O1872      C1882   1.283       .  A
O1872     Cu1879   2.036       .  S
O1873      C1883   1.275       .  A
O1874      C1884   1.272       .  A
O1874     Cu1879   1.983       .  S
O1875      C1884   1.283       .  A
O1876      C1883   1.280       .  A
O1876     Cu1880   2.021   1_556  S
O1877      C1882   1.274       .  A
O1878      C1881   1.277       .  A
O1878     Cu1880   2.004   1_556  S
C1881      C1938   1.475       .  S
C1882      C2005   1.481       .  S
C1883      C1921   1.476       .  S
C1884      C1925   1.476       .  S
C1885      C1886   1.415       .  A
C1885      C1890   1.405       .  A
C1885      C1966   1.495       .  S
C1886      C1887   1.411       .  A
C1886      H1891   1.082       .  S
C1887      C1888   1.410       .  A
C1887      C1929   1.500       .  S
C1888      C1889   1.402       .  A
C1888      H1892   1.081       .  S
C1889      C1890   1.405       .  A
C1889      C1945   1.489       .  S
C1890      H1893   1.083       .  S
C1894      C1895   1.404       .  A
C1894      C1899   1.403       .  A
C1894      C1997   1.481       .  S
C1895      C1896   1.399       .  A
C1895      H1900   1.083       .  S
C1896      C1897   1.412       .  A
C1896      C1926   1.490       .  S
C1897      C1898   1.408       .  A
C1897      H1901   1.082       .  S
C1898      C1899   1.407       .  A
C1898      C1962   1.492       .  S
C1899      H1902   1.082       .  S
C1903      C1904   1.401       .  A
C1903      C1908   1.409       .  A
C1903      C1978   1.488       .  S
C1904      C1905   1.401       .  A
C1904      H1909   1.084       .  S
C1905      C1906   1.406       .  A
C1905      C1941   1.484       .  S
C1906      C1907   1.403       .  A
C1906      H1910   1.083       .  S
C1907      C1908   1.410       .  A
C1907      C1922   1.489       .  S
C1908      H1911   1.079       .  S
C1912      C1913   1.399       .  A
C1912      C1917   1.405       .  A
C1912      C1934   1.478       .  S
C1913      C1914   1.405       .  A
C1913      H1918   1.084       .  S
C1914      C1915   1.402       .  A
C1914      C1974   1.485       .  S
C1915      C1916   1.410       .  A
C1915      H1919   1.083       .  S
C1916      C1917   1.401       .  A
C1916      C1993   1.485       .  S
C1917      H1920   1.084       .  S
C1921      C1922   1.345       .  D
C1921      H1923   1.084       .  S
C1922      H1924   1.087       .  S
C1925      C1926   1.341       .  D
C1925      H1927   1.085       .  S
C1926      H1928   1.087       .  S
C1929      C1930   1.351       .  D
C1929      H1931   1.086       .  S
C1930      H1932   1.084       .  S
C1933      C1934   1.342       .  D
C1933      H1935   1.087       .  S
C1934      H1936   1.087       .  S
C1937      C1938   1.348       .  D
C1937      H1939   1.087       .  S
C1938      H1940   1.086       .  S
C1941      C1942   1.345       .  D
C1941      H1943   1.087       .  S
C1942      H1944   1.085       .  S
C1945      C1946   1.347       .  D
C1945      H1947   1.087       .  S
C1946      H1948   1.085       .  S
C1949      C1950   1.349       .  D
C1949      H1951   1.084       .  S
C1950      H1952   1.087       .  S
C1953      C1954   1.341       .  D
C1953      H1955   1.088       .  S
C1954      H1956   1.086       .  S
C1957      C1958   1.345       .  D
C1957      H1959   1.087       .  S
C1958      H1960   1.085       .  S
C1961      C1962   1.351       .  D
C1961      H1963   1.085       .  S
C1962      H1964   1.087       .  S
C1965      C1966   1.346       .  D
C1965      H1967   1.085       .  S
C1966      H1968   1.087       .  S
C1969      C1970   1.341       .  D
C1969      H1971   1.086       .  S
C1970      H1972   1.087       .  S
C1973      C1974   1.345       .  D
C1973      H1975   1.086       .  S
C1974      H1976   1.087       .  S
C1977      C1978   1.344       .  D
C1977      H1979   1.085       .  S
C1978      H1980   1.087       .  S
C1981      C1982   1.340       .  D
C1981      H1983   1.086       .  S
C1982      H1984   1.087       .  S
C1985      C1986   1.345       .  D
C1985      H1987   1.086       .  S
C1986      H1988   1.087       .  S
C1989      C1990   1.346       .  D
C1989      H1991   1.087       .  S
C1990      H1992   1.085       .  S
C1993      C1994   1.340       .  D
C1993      H1995   1.087       .  S
C1994      H1996   1.086       .  S
C1997      C1998   1.347       .  D
C1997      H1999   1.087       .  S
C1998      H2000   1.085       .  S
C2001      C2002   1.345       .  D
C2001      H2003   1.086       .  S
C2002      H2004   1.086       .  S
C2005      C2006   1.341       .  D
C2005      H2007   1.086       .  S
C2006      H2008   1.087       .  S
C2009      C2010   1.344       .  D
C2009      H2011   1.087       .  S
C2010      H2012   1.086       .  S
C2013      C2014   1.342       .  D
C2013      H2015   1.085       .  S
C2014      H2016   1.087       .  S
