geometry optimzed in LAMMPS
_audit_creation_date              2020-11-30 
_audit_creation_method            'lammps2cif' 
_symmetry_space_group_name_H-M    'P1' 
_symmetry_Int_Tables_number       1 
_symmetry_cell_setting            triclinic 
loop_ 
_symmetry_equiv_pos_as_xyz 
  x,y,z 
_cell_length_a                    39.29823945 
_cell_length_b                    38.41385595166144 
_cell_length_c                    29.082588752736594 
_cell_angle_alpha                 91.04001091115937 
_cell_angle_beta                  90.47159467527513 
_cell_angle_gamma                 89.91228855966797 
loop_ 
_atom_site_label 
_atom_site_type_symbol 
_atom_site_fract_x 
_atom_site_fract_y 
_atom_site_fract_z 
_atom_site_charge 
O1          O  0.26265304  0.18363913  0.36744417    -0.87300
O2          O  0.25858457  0.19479861  0.63179037    -0.87400
O3          O  0.32145690  0.15262154  0.50922339    -0.89100
O4          O  0.21114086  0.14753358  0.50399241    -0.87900
O5          O  0.16899003  0.18843183  0.49914832    -0.87500
O6          O  0.36054624  0.19659268  0.50375440    -0.88800
O7          O  0.25979335  0.15196110  0.57535550    -0.87300
O8          O  0.26469587  0.14568572  0.42801379    -0.86900
Zr9        Zr  0.26492798  0.17843846  0.50006549     2.84300
O10         O  0.22962805  0.21410346  0.54458280    -1.08900
O11         O  0.29727431  0.21224908  0.45013774    -1.09600
C12         C  0.26280070  0.15250208  0.38478175     1.05800
C13         C  0.25753211  0.16245745  0.61767903     1.05800
C14         C  0.35213806  0.16465471  0.50943621     1.08800
C15         C  0.17963413  0.15697703  0.50328528     1.06500
H16         H  0.31106054  0.20314007  0.56729042     0.32100
O17         O  0.29649969  0.21633192  0.54734270    -1.29800
H18         H  0.21604903  0.19422740  0.43113780     0.31800
O19         O  0.23032285  0.20999307  0.44909386    -1.31500
O20         O  0.25893842  0.31337524  0.62444924    -0.87300
O21         O  0.26143120  0.30378516  0.36189499    -0.88800
O22         O  0.35768604  0.25483830  0.57106226    -0.87300
O23         O  0.16422079  0.24416332  0.56586584    -0.87400
O24         O  0.16578751  0.24422847  0.42076977    -0.87100
O25         O  0.35829988  0.24912167  0.42507175    -0.86900
O26         O  0.31243652  0.34772380  0.49784056    -0.87300
O27         O  0.20307919  0.34298414  0.49681485    -0.86700
O28         O  0.35486879  0.30675882  0.49903091    -0.87800
O29         O  0.16391161  0.29889613  0.49744835    -0.87000
O30         O  0.31868978  0.25420617  0.62963093    -0.87400
O31         O  0.32051693  0.24593375  0.36443607    -0.87100
O32         O  0.20494613  0.24558571  0.36244766    -0.86700
O33         O  0.20219108  0.25029558  0.62598324    -0.87100
O34         O  0.25852719  0.35032449  0.56341487    -0.87400
O35         O  0.25788556  0.34465897  0.41980551    -0.88800
Zr36       Zr  0.26090424  0.25203153  0.59326474     2.83100
Zr37       Zr  0.26264520  0.24479866  0.39909188     2.83500
Zr38       Zr  0.32866482  0.25007681  0.49767533     2.84100
Zr39       Zr  0.19504561  0.24498697  0.49438242     2.83400
Zr40       Zr  0.25905399  0.31652842  0.49324980     2.84200
O41         O  0.22673945  0.27971061  0.44547623    -1.09400
O42         O  0.29382263  0.28546284  0.54327814    -1.08900
C43         C  0.25818387  0.34438002  0.60677386     1.05800
C44         C  0.25932890  0.33604267  0.37685827     1.08400
C45         C  0.34962504  0.25554599  0.61391159     1.06000
C46         C  0.17148579  0.24686685  0.60905064     1.06300
C47         C  0.17392912  0.24539655  0.37799890     1.05900
C48         C  0.35117430  0.24794441  0.38172273     1.05500
C49         C  0.34383761  0.33829142  0.49981449     1.05900
C50         C  0.17247952  0.33115186  0.49878364     1.05400
H51         H  0.30902105  0.29710569  0.42915615     0.32100
O52         O  0.29489654  0.28229375  0.44740754    -1.30400
H53         H  0.21118680  0.29752264  0.56005525     0.32100
O54         O  0.22623726  0.28292519  0.54205308    -1.31800
N55         N  0.46158967  0.50096335  0.52503558    -0.37400
N56         N  0.00827755  0.44560543  0.52853455    -0.58000
N57         N  0.06292049  0.49439066  0.53462306    -0.37400
N58         N  0.01470185  0.05045248  0.54610305    -0.58000
C59         C  0.44389899  0.47436124  0.50588205     0.26200
C60         C  0.44656827  0.03121019  0.52612629     0.26200
C61         C  0.07779427  0.46541198  0.51767058     0.26200
C62         C  0.08133242  0.02376300  0.53281911     0.26200
C63         C  0.48131420  0.42705117  0.53126694     0.34800
C64         C  0.03394446  0.42382764  0.53852880     0.34800
C65         C  0.49026057  0.07150716  0.55748102     0.34800
C66         C  0.04227349  0.06935882  0.55768803     0.34800
C67         C  0.41706857  0.48696491  0.47979890    -0.22700
C68         C  0.41724328  0.02387486  0.50081815    -0.22700
C69         C  0.10571334  0.47397322  0.49137528    -0.22700
C70         C  0.10777347  0.01229284  0.50517117    -0.22700
C71         C  0.48831591  0.39355770  0.54566213    -0.23700
C72         C  0.02155071  0.39168336  0.55118912    -0.23700
C73         C  0.50187221  0.10337838  0.57425322    -0.23700
C74         C  0.03283071  0.10256141  0.57186206    -0.23700
C75         C  0.44985433  0.43918014  0.51509434    -0.19100
C76         C  0.45736642  0.06472720  0.54025840    -0.19100
C77         C  0.07516228  0.05853940  0.54584893    -0.19100
C78         C  0.06783518  0.43163139  0.52878811    -0.19100
H79         H  0.39815387  0.47197568  0.46081886     0.13800
H80         H  0.39898305  0.04214602  0.48713029     0.13800
H81         H  0.12286410  0.45630718  0.47366476     0.13800
H82         H  0.12675340  0.02790035  0.48841042     0.13800
H83         H  0.47053021  0.37233862  0.54947577     0.12100
H84         H  0.03607744  0.36863942  0.55947105     0.12100
H85         H  0.48709221  0.12674636  0.58060802     0.12100
H86         H  0.04951169  0.12391485  0.58106027     0.12100
H87         H  0.48007170  0.49897701  0.55075245     0.25400
H88         H  0.04392675  0.49528723  0.55949092     0.25400
O89         O  0.48326748  0.43603725  0.86230619    -0.87300
O90         O  0.48469413  0.43964802  0.12585812    -0.87400
O91         O  0.03275867  0.39418704  0.98843234    -0.89100
O92         O  0.42374868  0.40550904  0.98785966    -0.87900
O93         O  0.38612548  0.45122029  0.98787441    -0.87500
O94         O  0.07640847  0.43363740  0.98849051    -0.88800
O95         O  0.48032919  0.39914761  0.06724265    -0.86500
O96         O  0.48086062  0.39795549  0.92197457    -0.86900
Zr97       Zr  0.48108141  0.42895734  0.99415327     2.84300
O98         O  0.44973216  0.46601499  0.04210442    -1.08900
O99         O  0.01635987  0.45881448  0.94602656    -1.09600
C100        C  0.48138085  0.40467325  0.87895607     1.05800
C101        C  0.48278366  0.40765519  0.11032755     1.05800
C102        C  0.06441985  0.40257721  0.98648266     1.08800
C103        C  0.39365785  0.41878267  0.98535329     1.06500
H104        H  0.03158349  0.44391121  0.06064577     0.32100
O105        O  0.01770183  0.45958574  0.04287337    -1.29800
H106        H  0.43546417  0.45167177  0.92645195     0.31800
O107        O  0.45070266  0.46548222  0.94538140    -1.31500
O108        O  0.48931271  0.05953077  0.12884903    -0.87300
O109        O  0.48709887  0.05900910  0.86663242    -0.88800
O110        O  0.08352214  0.48902404  0.06552413    -0.87300
O111        O  0.39059106  0.50451062  0.06592435    -0.87400
O112        O  0.39004516  0.00431848  0.92190522    -0.87100
O113        O  0.08314405  0.99174579  0.92330282    -0.86900
O114        O  0.04939255  0.09029910  0.99329842    -0.87300
O115        O  0.44098870  0.10019579  0.99255696    -0.86700
O116        O  0.08727422  0.04497116  0.99492284    -0.87800
O117        O  0.39694245  0.06121958  0.98790143    -0.87000
O118        O  0.04603613  0.49522258  0.12528651    -0.87400
O119        O  0.04441780  0.99414114  0.86351910    -0.87100
O120        O  0.42801642  0.00113960  0.86229438    -0.86700
O121        O  0.42905998  0.50143856  0.12571224    -0.87100
O122        O  0.49352613  0.09814144  0.06966925    -0.87400
O123        O  0.49361290  0.09789833  0.92670104    -0.88800
Zr124      Zr  0.48679670  0.49846056  0.09083834     2.83100
Zr125      Zr  0.48619280  0.99778756  0.89793435     2.83500
Zr126      Zr  0.05245029  0.49107475  0.99413631     2.84100
Zr127      Zr  0.41982504  0.50296324  0.99298070     2.83400
Zr128      Zr  0.49238139  0.06666077  0.99726832     2.84200
O129        O  0.45613822  0.03518554  0.94803202    -1.09400
O130        O  0.02376072  0.03071104  0.04429822    -1.08900
C131        C  0.49204974  0.09085493  0.11261420     1.05800
C132        C  0.49002728  0.09074846  0.88370830     1.08400
C133        C  0.07667058  0.49177468  0.10859938     1.06000
C134        C  0.39827568  0.50395524  0.10908727     1.06300
C135        C  0.39726904  0.00329565  0.87878088     1.05900
C136        C  0.07528263  0.99316181  0.88034674     1.05500
C137        C  0.07971609  0.07745877  0.99312434     1.05900
C138        C  0.40956004  0.09200867  0.98748509     1.05400
H139        H  0.03766413  0.04237848  0.92877625     0.32100
O140        O  0.02242314  0.02876910  0.94705570    -1.30400
H141        H  0.44158732  0.05250219  0.06205955     0.32100
O142        O  0.45523193  0.03638306  0.04419028    -1.31800
N143        N  0.28937045  0.25304754  0.95945459    -0.37400
N144        N  0.23198031  0.29925844  0.96080110    -0.58000
N145        N  0.18667148  0.24104907  0.96447992    -0.37400
N146        N  0.24380169  0.19455031  0.96298159    -0.58000
C147        C  0.30454981  0.28333284  0.97146766     0.26200
C148        C  0.31127817  0.22744839  0.97024650     0.26200
C149        C  0.16598105  0.26735640  0.97761757     0.26200
C150        C  0.17247399  0.21142563  0.97933189     0.26200
C151        C  0.25669431  0.32243669  0.95281691     0.34800
C152        C  0.20240314  0.31602979  0.95407559     0.34800
C153        C  0.27293890  0.17759912  0.95356876     0.34800
C154        C  0.21866309  0.17102972  0.95773642     0.34800
C155        C  0.33679210  0.27701959  0.98922642    -0.22700
C156        C  0.34120094  0.24163904  0.98800844    -0.22700
C157        C  0.13819365  0.25439127  0.00082443    -0.22700
C158        C  0.14229637  0.21890116  0.00188356    -0.22700
C159        C  0.24292454  0.35414928  0.94039942    -0.23700
C160        C  0.20825311  0.35002776  0.94100135    -0.23700
C161        C  0.26627858  0.14302204  0.94208905    -0.23700
C162        C  0.23165598  0.13891067  0.94449000    -0.23700
C163        C  0.29091081  0.31651255  0.96366912    -0.19100
C164        C  0.30530658  0.19176934  0.96250070    -0.19100
C165        C  0.18476445  0.17773853  0.96953436    -0.19100
C166        C  0.17086795  0.30251383  0.96704271    -0.19100
H167        H  0.35544851  0.29591171  0.00109004     0.13800
H168        H  0.36397363  0.22808033  0.99878852     0.13800
H169        H  0.11708566  0.26895964  0.01519387     0.13800
H170        H  0.12491113  0.20064483  0.01708670     0.13800
H171        H  0.25639587  0.37806525  0.93372027     0.12100
H172        H  0.18954656  0.37018135  0.93498804     0.12100
H173        H  0.28446285  0.12257780  0.93457907     0.12100
H174        H  0.21779995  0.11485651  0.93884267     0.12100
H175        H  0.26702600  0.25010863  0.94038347     0.25400
H176        H  0.20693076  0.24278904  0.94180468     0.25400
C177        C  0.04319970  0.25238393  0.27726014     0.85700
C178        C  0.03969477  0.22109654  0.24443385    -0.54500
C179        C  0.50898262  0.21894760  0.22080524     0.08600
C180        C  0.48469800  0.25021639  0.23109092     0.19600
C181        C  0.03662595  0.28379641  0.24610472    -0.55300
C182        C  0.50575384  0.28366237  0.22183029     0.08700
C183        C  0.51098272  0.25167798  0.30731292    -0.54800
C184        C  0.48039260  0.25090286  0.28378080     0.09300
H185        H  0.05950173  0.20150854  0.24068811     0.13800
H186        H  0.46005830  0.24888450  0.21241672    -0.00400
H187        H  0.05397727  0.30522700  0.24212986     0.14100
H188        H  0.51267399  0.25165251  0.34457273     0.13900
C189        C  0.20732119  0.49556974  0.21182891     0.85700
C190        C  0.21187097  0.46311957  0.24101848    -0.54500
C191        C  0.24135090  0.46168302  0.26585511     0.08600
C192        C  0.26435261  0.49440006  0.25987470     0.19600
C193        C  0.21245018  0.02838438  0.24799720    -0.55300
C194        C  0.24263618  0.02744381  0.27142145     0.08700
C195        C  0.24009947  0.49723117  0.18256220    -0.54800
C196        C  0.27011367  0.49578579  0.20739605     0.09300
H197        H  0.19319407  0.44228997  0.24127073     0.13800
H198        H  0.28822251  0.49405034  0.28047655    -0.00400
H199        H  0.19600023  0.05079700  0.25181563     0.14100
H200        H  0.23961425  0.49977962  0.14545805     0.13900
C201        C  0.04317819  0.24665695  0.71533965     0.85700
C202        C  0.03752660  0.27783899  0.74857716    -0.54500
C203        C  0.50783877  0.27826005  0.77129740     0.08600
C204        C  0.48568993  0.24535343  0.76187623     0.19600
C205        C  0.03950597  0.21444326  0.74528940    -0.55300
C206        C  0.50877079  0.21272896  0.76818313     0.08700
C207        C  0.50911065  0.24780637  0.68491550    -0.54800
C208        C  0.47934671  0.24636546  0.70977080     0.09300
H209        H  0.05395834  0.30032244  0.75112026     0.13800
H210        H  0.46188062  0.24504314  0.78213280    -0.00400
H211        H  0.05868892  0.19408400  0.74652349     0.14100
H212        H  0.50903569  0.25053152  0.64784875     0.13900
C213        C  0.20304774  0.49955979  0.77449850     0.85700
C214        C  0.20621700  0.03238717  0.74779283    -0.54500
C215        C  0.23599510  0.03648880  0.72402085     0.08600
C216        C  0.25942069  0.50389185  0.72670767     0.19600
C217        C  0.20978354  0.46829365  0.74182460    -0.55300
C218        C  0.23882128  0.47037852  0.71714325     0.08700
C219        C  0.23609548  0.50131963  0.80408364    -0.54800
C220        C  0.26577174  0.50370410  0.77922373     0.09300
H221        H  0.18618392  0.05182702  0.74827498     0.13800
H222        H  0.28282598  0.50438727  0.70584258    -0.00400
H223        H  0.19479734  0.44477647  0.73942712     0.14100
H224        H  0.23599116  0.50016661  0.84134349     0.13900
C225        C  0.10760339  0.49083727  0.13922324    -0.06900
C226        C  0.13511030  0.46963406  0.12525211    -0.18000
C227        C  0.16699932  0.47053075  0.14776702     0.10300
C228        C  0.17274982  0.49415514  0.18522032    -0.06800
C229        C  0.14462797  0.02096116  0.19953688    -0.18100
C230        C  0.11296091  0.02051541  0.17647082     0.10300
S231        S  0.19924764  0.43984215  0.12901598    -0.33000
S232        S  0.08240620  0.05383429  0.19170456    -0.33000
H233        H  0.07066479  0.05951207  0.14667489     0.28300
H234        H  0.18374802  0.43007355  0.08697595     0.28300
H235        H  0.13148878  0.45195592  0.09620578     0.18900
H236        H  0.14750689  0.04030092  0.22645181     0.18900
C237        C  0.36840392  0.50617256  0.14047273    -0.06900
C238        C  0.36441921  0.48165768  0.17525225    -0.18000
C239        C  0.33291531  0.47738082  0.19738835     0.10300
C240        C  0.30458998  0.49854172  0.18550629    -0.06800
C241        C  0.30772148  0.02395972  0.15116113    -0.18100
C242        C  0.33923090  0.02859094  0.12984142     0.10300
S243        S  0.32964162  0.44192058  0.23656529    -0.33000
S244        S  0.34228018  0.06403750  0.09014473    -0.33000
H245        H  0.37710149  0.07038008  0.09795543     0.28300
H246        H  0.29860424  0.43033908  0.21752162     0.28300
H247        H  0.38514682  0.46397716  0.18285253     0.18900
H248        H  0.28706495  0.04160759  0.14310812     0.18900
C249        C  0.48432918  0.37745202  0.14293360    -0.06900
C250        C  0.47233173  0.34456857  0.12724879    -0.18000
C251        C  0.47767663  0.31386228  0.15209800     0.10300
C252        C  0.49452961  0.31536421  0.19527759    -0.06800
C253        C  0.00397252  0.34843768  0.21392679    -0.18100
C254        C  0.00039817  0.37881689  0.18804967     0.10300
S255        S  0.46418875  0.27375161  0.12474780    -0.33000
S256        S  0.01814725  0.41825993  0.21260443    -0.33000
H257        H  0.03803966  0.42524481  0.17380125     0.28300
H258        H  0.49432518  0.25587232  0.13508281     0.28300
H259        H  0.45989383  0.34229671  0.09394931     0.18900
H260        H  0.01535361  0.35083962  0.24789072     0.18900
C261        C  0.50220978  0.18783323  0.19018227    -0.06900
C262        C  0.47423742  0.16594113  0.19846086    -0.18000
C263        C  0.47005366  0.13374015  0.17472974     0.10300
C264        C  0.49541577  0.12198252  0.14376182    -0.06800
C265        C  0.02278440  0.14525167  0.13285287    -0.18100
C266        C  0.02641052  0.17745228  0.15565620     0.10300
S267        S  0.43137535  0.10979371  0.18421034    -0.33000
S268        S  0.06208695  0.20381407  0.13852854    -0.33000
H269        H  0.05001421  0.23615478  0.15448984     0.28300
H270        H  0.42931760  0.09426967  0.14016719     0.28300
H271        H  0.45571232  0.17364267  0.22388884     0.18900
H272        H  0.04079960  0.13834113  0.10613761     0.18900
C273        C  0.14247384  0.32676939  0.97405620    -0.06900
C274        C  0.11661332  0.32747659  0.94071869    -0.18000
C275        C  0.09034355  0.35176805  0.94393951     0.10300
C276        C  0.08955848  0.37493271  0.98212878    -0.06800
C277        C  0.11527522  0.37386114  0.01567132    -0.18100
C278        C  0.14170633  0.34992739  0.01218990     0.10300
S279        S  0.06033702  0.35333835  0.89682217    -0.33000
S280        S  0.17407168  0.35103894  0.05662161    -0.33000
H281        H  0.18312494  0.31569885  0.05338623     0.28300
H282        H  0.05429057  0.38932457  0.89981902     0.28300
H283        H  0.11769572  0.30988480  0.91118547     0.18900
H284        H  0.11486715  0.39205056  0.04462794     0.18900
C285        C  0.31364669  0.34637115  0.96899562    -0.06900
C286        C  0.33218274  0.35604778  0.93048247    -0.18000
C287        C  0.35766159  0.38091705  0.93458291     0.10300
C288        C  0.36543612  0.39516566  0.97836125    -0.06800
C289        C  0.34593533  0.38673965  0.01645212    -0.18100
C290        C  0.31974627  0.36255966  0.01227326     0.10300
S291        S  0.37932814  0.39321899  0.88310382    -0.33000
S292        S  0.29660316  0.35272706  0.06389254    -0.33000
H293        H  0.27090705  0.33176261  0.04450736     0.28300
H294        H  0.38274531  0.42834894  0.89634772     0.28300
H295        H  0.32705188  0.34373857  0.89730195     0.18900
H296        H  0.35163416  0.39855747  0.04977235     0.18900
C297        C  0.38595341  0.11991373  0.97976869    -0.06900
C298        C  0.37218578  0.13640250  0.01846189    -0.18000
C299        C  0.34550970  0.15974297  0.01382337     0.10300
C300        C  0.33360380  0.16765077  0.96929991    -0.06800
C301        C  0.34874919  0.15256211  0.93040714    -0.18100
C302        C  0.37476344  0.12832304  0.93507765     0.10300
S303        S  0.32785845  0.17836218  0.06587649    -0.33000
S304        S  0.39220567  0.10970460  0.88267059    -0.33000
H305        H  0.41477704  0.08555038  0.90174070     0.28300
H306        H  0.29436910  0.18169965  0.04928028     0.28300
H307        H  0.38131909  0.12991623  0.05254082     0.18900
H308        H  0.33965912  0.15918618  0.89636256     0.18900
C309        C  0.10783523  0.10174402  0.98781476    -0.06900
C310        C  0.10773806  0.12194639  0.94821709    -0.18000
C311        C  0.13428670  0.14474595  0.93960428     0.10300
C312        C  0.16065880  0.14863610  0.97232837    -0.06800
C313        C  0.16151426  0.12762818  0.01123078    -0.18100
C314        C  0.13542191  0.10387797  0.01917352     0.10300
S315        S  0.13304523  0.16843046  0.88658752    -0.33000
S316        S  0.13823151  0.07820224  0.07046161    -0.33000
H317        H  0.10303321  0.07457209  0.07681868     0.28300
H318        H  0.16843753  0.17260006  0.88264356     0.28300
H319        H  0.08713590  0.11938827  0.92334962     0.18900
H320        H  0.18191536  0.13072862  0.03627661     0.18900
C321        C  0.36665668  0.00532491  0.84787492    -0.06900
C322        C  0.34143780  0.02984016  0.86011433    -0.18000
C323        C  0.30937178  0.03040689  0.83866777     0.10300
C324        C  0.30076804  0.50512871  0.80079481    -0.06800
C325        C  0.32676906  0.48275358  0.78467047    -0.18100
C326        C  0.35925493  0.48150034  0.80617940     0.10300
S327        S  0.28055214  0.06467208  0.85606145    -0.33000
S328        S  0.38977635  0.45146699  0.78172667    -0.33000
H329        H  0.40821394  0.44496239  0.82205966     0.28300
H330        H  0.26551986  0.06882413  0.81247633     0.28300
H331        H  0.34658757  0.04863002  0.88751384     0.18900
H332        H  0.32146915  0.46538126  0.75573721     0.18900
C333        C  0.16880879  0.49880084  0.80145058    -0.06900
C334        C  0.14363849  0.47306535  0.79177081    -0.18000
C335        C  0.11258237  0.47170780  0.81527889     0.10300
C336        C  0.10518899  0.99499389  0.84967161    -0.06800
C337        C  0.12730850  0.02340970  0.85599715    -0.18100
C338        C  0.15920961  0.02492996  0.83433027     0.10300
S339        S  0.08452880  0.43569764  0.80189464    -0.33000
S340        S  0.18620847  0.06211452  0.84681981    -0.33000
H341        H  0.16422864  0.07986086  0.87718140     0.28300
H342        H  0.07166964  0.43220393  0.84643460     0.28300
H343        H  0.14707586  0.45338393  0.76555812     0.18900
H344        H  0.11972832  0.04426994  0.87931033     0.18900
C345        C  0.49023345  0.12211533  0.85285672    -0.06900
C346        C  0.99739071  0.11688084  0.80405400    -0.18000
C347        C  0.00174698  0.14610641  0.77590125     0.10300
C348        C  0.49959616  0.18108484  0.79508256    -0.06800
C349        C  0.49018268  0.18560427  0.84092796    -0.18100
C350        C  0.48552214  0.15713948  0.86982082     0.10300
S351        S  0.00776834  0.13760186  0.71541111    -0.33000
S352        S  0.47425773  0.16864839  0.92812724    -0.33000
H353        H  0.44740738  0.14484887  0.92890448     0.28300
H354        H  0.99195703  0.16831325  0.70062324     0.28300
H355        H  0.99983649  0.09103640  0.78892122     0.18900
H356        H  0.48752017  0.21180757  0.85495400     0.18900
C357        C  0.48148674  0.37294147  0.84782686    -0.06900
C358        C  0.49525082  0.37504197  0.80371653    -0.18000
C359        C  0.50107439  0.34505608  0.77651595     0.10300
C360        C  0.49560240  0.31129345  0.79473631    -0.06800
C361        C  0.97940338  0.30787668  0.83818023    -0.18100
C362        C  0.97127598  0.33776949  0.86469102     0.10300
S363        S  0.51371627  0.35236201  0.71801106    -0.33000
S364        S  0.94950721  0.33120639  0.91853376    -0.33000
H365        H  0.93916201  0.29667900  0.90953382     0.28300
H366        H  0.49780491  0.32242537  0.70005766     0.28300
H367        H  0.50188344  0.40024625  0.79028897     0.18900
H368        H  0.97516272  0.28227590  0.85201104     0.18900
C369        C  0.44429872  0.24950601  0.68903404    -0.06900
C370        C  0.43748264  0.27752344  0.66009106    -0.18000
C371        C  0.40539403  0.28198239  0.63937873     0.10300
C372        C  0.37937260  0.25724118  0.64597235    -0.06800
C373        C  0.38546345  0.22995496  0.67639269    -0.18100
C374        C  0.41743739  0.22599466  0.69834610     0.10300
S375        S  0.39773656  0.31961360  0.60444124    -0.33000
S376        S  0.42400644  0.18945675  0.73554769    -0.33000
H377        H  0.39285560  0.17264439  0.72626718     0.28300
H378        H  0.42944246  0.33578668  0.61189085     0.28300
H379        H  0.45746478  0.29600402  0.65347589     0.18900
H380        H  0.36568818  0.21078673  0.68110810     0.18900
C381        C  0.07750281  0.24635129  0.68853353    -0.06900
C382        C  0.10478450  0.26906498  0.70090396    -0.18000
C383        C  0.13575107  0.26950192  0.67672549     0.10300
C384        C  0.14119138  0.24577530  0.63998328    -0.06800
C385        C  0.11506257  0.22201357  0.62887138    -0.18100
C386        C  0.08382194  0.22189531  0.65230224     0.10300
S387        S  0.16674538  0.30205325  0.69330595    -0.33000
S388        S  0.05282414  0.18950598  0.63509081    -0.33000
H389        H  0.06505082  0.18448918  0.59011544     0.28300
H390        H  0.17556971  0.31055789  0.64807889     0.28300
H391        H  0.10291283  0.28685937  0.72976429     0.18900
H392        H  0.11918018  0.20321494  0.60124111     0.18900
C393        C  0.25179742  0.13438931  0.65151177    -0.06900
C394        C  0.27963562  0.11720332  0.67133809    -0.18000
C395        C  0.27565903  0.08604923  0.69600614     0.10300
C396        C  0.24308778  0.06991728  0.69834259    -0.06800
C397        C  0.21528814  0.08802610  0.67883044    -0.18100
C398        C  0.21909431  0.12035638  0.65769656     0.10300
S399        S  0.31225495  0.06922427  0.72624307    -0.33000
S400        S  0.18097516  0.14301115  0.64033403    -0.33000
H401        H  0.19470344  0.17669129  0.64342596     0.28300
H402        H  0.33532151  0.09566482  0.71508069     0.28300
H403        H  0.30461243  0.12839246  0.66753250     0.18900
H404        H  0.18992006  0.07729299  0.68041721     0.18900
C405        C  0.25559545  0.37670874  0.63650443    -0.06900
C406        C  0.24005485  0.40637389  0.61708214    -0.18000
C407        C  0.23696951  0.43801549  0.64159274     0.10300
C408        C  0.24925733  0.44064417  0.68693992    -0.06800
C409        C  0.26597192  0.41187838  0.70615672    -0.18100
C410        C  0.26948032  0.38019123  0.68141128     0.10300
S411        S  0.21622191  0.47479959  0.61543378    -0.33000
S412        S  0.29284855  0.34570065  0.70817237    -0.33000
H413        H  0.26384479  0.32447740  0.71137807     0.28300
H414        H  0.21620956  0.46129620  0.57014369     0.28300
H415        H  0.22958724  0.40472136  0.58258631     0.18900
H416        H  0.27539390  0.41377743  0.74123425     0.18900
C417        C  0.38002086  0.14039478  0.51828168    -0.06900
C418        C  0.40159350  0.13096129  0.48210559    -0.18000
C419        C  0.42867685  0.10812609  0.48926119     0.10300
C420        C  0.43373158  0.09396069  0.53322513    -0.06800
C421        C  0.41309272  0.10456506  0.56987639    -0.18100
C422        C  0.38650909  0.12819631  0.56292372     0.10300
S423        S  0.45479220  0.09638569  0.44069828    -0.33000
S424        S  0.36157343  0.14342502  0.61108007    -0.33000
H425        H  0.37850838  0.12411206  0.64499431     0.28300
H426        H  0.48518910  0.09334506  0.46613694     0.28300
H427        H  0.39714479  0.14125310  0.44811983     0.18900
H428        H  0.41748598  0.09374381  0.60354659     0.18900
C429        C  0.10184148  0.08467464  0.53754753    -0.06900
C430        C  0.09521209  0.11002450  0.50469335    -0.18000
C431        C  0.12047415  0.13283812  0.49116654     0.10300
C432        C  0.15354189  0.13017982  0.51031129    -0.06800
C433        C  0.16055503  0.10368857  0.54161678    -0.18100
C434        C  0.13480614  0.08179841  0.55671144     0.10300
S435        S  0.10910777  0.16341119  0.44760686    -0.33000
S436        S  0.14530078  0.05114425  0.60093276    -0.33000
H437        H  0.11270568  0.05074520  0.62054746     0.28300
H438        H  0.14071680  0.16065688  0.42568067     0.28300
H439        H  0.07031396  0.11143427  0.48848233     0.18900
H440        H  0.18581421  0.10121848  0.55641484     0.18900
C441        C  0.14521792  0.35634049  0.50567519    -0.06900
C442        C  0.14891787  0.38073819  0.54179933    -0.18000
C443        C  0.12286220  0.40401888  0.55228557     0.10300
C444        C  0.09306881  0.40361882  0.52498481    -0.06800
C445        C  0.08898368  0.37870537  0.48965143    -0.18100
C446        C  0.11466999  0.35482562  0.47990937     0.10300
S447        S  0.12897450  0.43352715  0.60069738    -0.33000
S448        S  0.10738247  0.32412654  0.43321881    -0.33000
H449        H  0.14140393  0.32300742  0.41891722     0.28300
H450        H  0.09428478  0.43746742  0.61115114     0.28300
H451        H  0.17184861  0.38097863  0.56276636     0.18900
H452        H  0.06612450  0.37870696  0.46852432     0.18900
C453        C  0.36953725  0.36548199  0.50297594    -0.06900
C454        C  0.39615668  0.36426368  0.47122205    -0.18000
C455        C  0.42202379  0.38894393  0.47298053     0.10300
C456        C  0.42177300  0.41452457  0.50826465    -0.06800
C457        C  0.39490614  0.41619360  0.53948397    -0.18100
C458        C  0.36878840  0.39182122  0.53743526     0.10300
S459        S  0.45437363  0.38657798  0.42940958    -0.33000
S460        S  0.33673336  0.39467083  0.58140666    -0.33000
H461        H  0.33172266  0.35861867  0.58508142     0.28300
H462        H  0.46232470  0.42223457  0.42996939     0.28300
H463        H  0.39651569  0.34421294  0.44453549     0.18900
H464        H  0.39494408  0.43598738  0.56654535     0.18900
C465        C  0.14419252  0.24668996  0.34590450    -0.06900
C466        C  0.12087932  0.21917616  0.34742657    -0.18000
C467        C  0.08802260  0.22134592  0.32812836     0.10300
C468        C  0.07793333  0.25136137  0.30353745    -0.06800
C469        C  0.10202230  0.27880453  0.30135759    -0.18100
C470        C  0.13432849  0.27705803  0.32257626     0.10300
S471        S  0.05914671  0.18551386  0.33711739    -0.33000
S472        S  0.16064369  0.31547877  0.31970828    -0.33000
H473        H  0.18264610  0.30875506  0.35669487     0.28300
H474        H  0.08440431  0.16019968  0.34460414     0.28300
H475        H  0.12813401  0.19611872  0.36561363     0.18900
H476        H  0.09611889  0.30278377  0.28460735     0.18900
C477        C  0.38169430  0.25048969  0.35150303    -0.06900
C478        C  0.40759778  0.27356855  0.36610305    -0.18000
C479        C  0.43910272  0.27509756  0.34408031     0.10300
C480        C  0.44608472  0.25239018  0.30648496    -0.06800
C481        C  0.41950486  0.23073603  0.29002338    -0.18100
C482        C  0.38777613  0.22913595  0.31228921     0.10300
S483        S  0.46846954  0.30794763  0.36463609    -0.33000
S484        S  0.35727481  0.19779098  0.29067591    -0.33000
H485        H  0.34613077  0.18747135  0.33417475     0.28300
H486        H  0.48029919  0.31640219  0.32070197     0.28300
H487        H  0.40326314  0.29077652  0.39541420     0.18900
H488        H  0.42377156  0.21383887  0.26059369     0.18900
C489        C  0.25819693  0.36698862  0.34476949    -0.06900
C490        C  0.26153044  0.40077010  0.36512397    -0.18000
C491        C  0.25707613  0.43149746  0.34032845     0.10300
C492        C  0.24983641  0.42973846  0.29299437    -0.06800
C493        C  0.24822689  0.39643649  0.27156025    -0.18100
C494        C  0.25261709  0.36536486  0.29641265     0.10300
S495        S  0.25843314  0.47225050  0.37192596    -0.33000
S496        S  0.25194058  0.32517262  0.26357713    -0.33000
H497        H  0.22839322  0.30859187  0.29158684     0.28300
H498        H  0.22898843  0.48574072  0.35092131     0.28300
H499        H  0.26667766  0.40374554  0.40160701     0.18900
H500        H  0.24317490  0.39459477  0.23490142     0.18900
C501        C  0.25801879  0.12126453  0.35417727    -0.06900
C502        C  0.28269783  0.11144834  0.32170843    -0.18000
C503        C  0.27976991  0.07988965  0.29592137     0.10300
C504        C  0.25187481  0.05731588  0.30322356    -0.06800
C505        C  0.22788558  0.06704530  0.33654921    -0.18100
C506        C  0.23036597  0.09849265  0.36128168     0.10300
S507        S  0.31080550  0.06973548  0.25247802    -0.33000
S508        S  0.19622661  0.10889569  0.40009491    -0.33000
H509        H  0.19534248  0.14434656  0.38899389     0.28300
H510        H  0.33131977  0.09934390  0.25964261     0.28300
H511        H  0.30426243  0.12843546  0.31677605     0.18900
H512        H  0.20592151  0.05060138  0.34187568     0.18900
O513        O  0.26102750  0.68514489  0.36554964    -0.87300
O514        O  0.25623907  0.69423387  0.62954000    -0.87400
O515        O  0.31928035  0.65369869  0.50519166    -0.89100
O516        O  0.20981498  0.64929668  0.50034745    -0.87900
O517        O  0.16778101  0.69045824  0.49904181    -0.87500
O518        O  0.35881050  0.69732817  0.50153133    -0.88800
O519        O  0.25681246  0.65238247  0.57186405    -0.87300
O520        O  0.26186468  0.64705409  0.42584357    -0.86900
Zr521      Zr  0.26335526  0.68008860  0.49777392     2.84300
O522        O  0.22874390  0.71570803  0.54307203    -1.08900
O523        O  0.29659904  0.71359676  0.44868797    -1.09600
C524        C  0.26029384  0.65388219  0.38260888     1.05800
C525        C  0.25438601  0.66216511  0.61440800     1.05800
C526        C  0.35004169  0.66534782  0.50603754     1.08800
C527        C  0.17839426  0.65880514  0.50094878     1.06500
H528        H  0.31020896  0.70341736  0.56515289     0.32100
O529        O  0.29571323  0.71704033  0.54562184    -1.29800
H530        H  0.21447409  0.69661779  0.42958867     0.31800
O531        O  0.22884705  0.71215742  0.44771977    -1.31500
O532        O  0.25802840  0.81285482  0.62614477    -0.87300
O533        O  0.26085994  0.80530572  0.36220561    -0.88800
O534        O  0.35785095  0.75452940  0.56897710    -0.87300
O535        O  0.16406358  0.74582736  0.56613135    -0.87400
O536        O  0.16494561  0.74642887  0.41933599    -0.87100
O537        O  0.35899006  0.75086946  0.42476007    -0.86900
O538        O  0.31095173  0.84970737  0.49753594    -0.87300
O539        O  0.20348608  0.84558854  0.49822321    -0.86700
O540        O  0.35345882  0.80881491  0.49836901    -0.87800
O541        O  0.16372316  0.80210626  0.49695039    -0.87000
O542        O  0.31951439  0.75352522  0.62823964    -0.87400
O543        O  0.32075102  0.74616385  0.36468521    -0.87100
O544        O  0.20444946  0.74740766  0.36130979    -0.86700
O545        O  0.20228728  0.75015659  0.62633609    -0.87100
O546        O  0.25707627  0.85005720  0.56572461    -0.87400
O547        O  0.25523430  0.84546582  0.42067194    -0.88800
Zr548      Zr  0.26071043  0.75221445  0.59292851     2.83100
Zr549      Zr  0.26207809  0.74628831  0.39822712     2.83500
Zr550      Zr  0.32799883  0.75142511  0.49644714     2.84100
Zr551      Zr  0.19385421  0.74715237  0.49371763     2.83400
Zr552      Zr  0.25841254  0.81759003  0.49406122     2.84200
O553        O  0.22643058  0.78124846  0.44535998    -1.09400
O554        O  0.29355505  0.78630125  0.54342901    -1.08900
C555        C  0.25675325  0.84402449  0.60911192     1.05800
C556        C  0.25741408  0.83723876  0.37768046     1.08400
C557        C  0.35041786  0.75489949  0.61197121     1.06000
C558        C  0.17154593  0.74728733  0.60935268     1.06300
C559        C  0.17332038  0.74724694  0.37652047     1.05900
C560        C  0.35159367  0.74852479  0.38154680     1.05500
C561        C  0.34231474  0.84034712  0.49956556     1.05900
C562        C  0.17272878  0.83428091  0.49958365     1.05400
H563        H  0.30813595  0.79881121  0.42881369     0.32100
O564        O  0.29405745  0.78386679  0.44695805    -1.30400
H565        H  0.21069156  0.79835460  0.56069705     0.32100
O566        O  0.22565178  0.78380812  0.54246468    -1.31800
N567        N  0.46184157  0.00125859  0.53818630    -0.37400
N568        N  0.00842842  0.94585049  0.54305494    -0.58000
N569        N  0.06296579  0.99647117  0.54727641    -0.37400
N570        N  0.01460698  0.54967451  0.53688377    -0.58000
C571        C  0.44287844  0.97500386  0.52034833     0.26200
C572        C  0.44631438  0.53049457  0.51151291     0.26200
C573        C  0.07776033  0.96767321  0.52963400     0.26200
C574        C  0.08120086  0.52151016  0.51978761     0.26200
C575        C  0.47993788  0.92688455  0.54466065     0.34800
C576        C  0.03486565  0.92462902  0.55130340     0.34800
C577        C  0.48788990  0.57180309  0.54473606     0.34800
C578        C  0.04309717  0.56730342  0.54798237     0.34800
C579        C  0.41501615  0.98827154  0.49698429    -0.22700
C580        C  0.41860771  0.52265332  0.48334357    -0.22700
C581        C  0.10553825  0.97666480  0.50320252    -0.22700
C582        C  0.10769795  0.50971370  0.49234201    -0.22700
C583        C  0.48613057  0.89349565  0.55990100    -0.23700
C584        C  0.02334325  0.89164197  0.56197673    -0.23700
C585        C  0.49843928  0.60387601  0.56208376    -0.23700
C586        C  0.03497182  0.60001901  0.56545022    -0.23700
C587        C  0.44874629  0.93951649  0.52812530    -0.19100
C588        C  0.45547209  0.56405333  0.52700538    -0.19100
C589        C  0.07549904  0.55618100  0.53373070    -0.19100
C590        C  0.06848902  0.93354721  0.54058306    -0.19100
H591        H  0.39483236  0.97380540  0.47982117     0.13800
H592        H  0.40112013  0.54075192  0.46754516     0.13800
H593        H  0.12263917  0.95930541  0.48489826     0.13800
H594        H  0.12677229  0.52517190  0.47553665     0.13800
H595        H  0.46784532  0.87281749  0.56390020     0.12100
H596        H  0.03853128  0.86865427  0.56821429     0.12100
H597        H  0.48301822  0.62686315  0.56807331     0.12100
H598        H  0.05249126  0.62043267  0.57549915     0.12100
H599        H  0.48153840  0.99886951  0.56205590     0.25400
H600        H  0.04388074  0.99711255  0.57202760     0.25400
O601        O  0.48404976  0.93682126  0.86365218    -0.87300
O602        O  0.48375154  0.94078608  0.12759484    -0.87400
O603        O  0.03339070  0.89586595  0.99550451    -0.89100
O604        O  0.42455867  0.90556092  0.99459086    -0.87900
O605        O  0.38695357  0.95123080  0.99620278    -0.87500
O606        O  0.07738805  0.93496174  0.99541866    -0.88800
O607        O  0.48032935  0.90061788  0.06840981    -0.86500
O608        O  0.48271375  0.89862727  0.92323911    -0.86900
Zr609      Zr  0.48148665  0.92995296  0.99543710     2.84300
O610        O  0.45046778  0.96717186  0.04336215    -1.08900
O611        O  0.01753063  0.95986818  0.94749343    -1.09600
C612        C  0.48291245  0.90530559  0.88015843     1.05800
C613        C  0.48206689  0.90891810  0.11154075     1.05800
C614        C  0.06506433  0.90398789  0.99543024     1.08800
C615        C  0.39439219  0.91869485  0.99545899     1.06500
H616        H  0.03186376  0.94641300  0.06261992     0.32100
O617        O  0.01815263  0.96178259  0.04417954    -1.29800
H618        H  0.43486380  0.95179197  0.92788008     0.31800
O619        O  0.45033238  0.96575673  0.94636184    -1.31500
O620        O  0.49050614  0.55828241  0.12629195    -0.87300
O621        O  0.48585441  0.55719611  0.86310984    -0.88800
O622        O  0.08349420  0.99295991  0.06796317    -0.87300
O623        O  0.39013571  0.00635773  0.06618430    -0.87400
O624        O  0.39016299  0.50295575  0.91958592    -0.87100
O625        O  0.08280348  0.49321979  0.92255541    -0.86900
O626        O  0.04785088  0.58865954  0.99582836    -0.87300
O627        O  0.44017982  0.59922282  0.99391722    -0.86700
O628        O  0.08567072  0.54329816  0.99739892    -0.87800
O629        O  0.39587286  0.56053033  0.98990550    -0.87000
O630        O  0.04546288  0.99840397  0.12735283    -0.87400
O631        O  0.04391551  0.49513003  0.86302047    -0.87100
O632        O  0.42780954  0.49861294  0.85979826    -0.86700
O633        O  0.42802345  0.00163492  0.12639504    -0.87100
O634        O  0.49410723  0.59680442  0.06687471    -0.87400
O635        O  0.49262688  0.59621131  0.92299724    -0.88800
Zr636      Zr  0.48659805  0.99967857  0.09306380     2.83100
Zr637      Zr  0.48599866  0.49681021  0.89591198     2.83500
Zr638      Zr  0.05345077  0.99270891  0.99551553     2.84100
Zr639      Zr  0.42021672  0.00362991  0.99457069     2.83400
Zr640      Zr  0.49188352  0.56569892  0.99435176     2.84200
O641        O  0.45532104  0.53443559  0.94540304    -1.09400
O642        O  0.02291824  0.52880365  0.04329351    -1.08900
C643        C  0.49318813  0.58953513  0.10984202     1.05800
C644        C  0.48855612  0.58890758  0.88005698     1.08400
C645        C  0.07614629  0.99564557  0.11091326     1.06000
C646        C  0.39737238  0.00475400  0.10929912     1.06300
C647        C  0.39708188  0.50096270  0.87631836     1.05900
C648        C  0.07490243  0.49490384  0.87963998     1.05500
C649        C  0.07805513  0.57574653  0.99677251     1.05900
C650        C  0.40851484  0.59133766  0.99109694     1.05400
H651        H  0.03695350  0.54204131  0.92866717     0.32100
O652        O  0.02174355  0.52802793  0.94650529    -1.30400
H653        H  0.44197307  0.55134194  0.06031613     0.32100
O654        O  0.45540168  0.53528246  0.04208243    -1.31800
N655        N  0.28699403  0.75342536  0.99801591    -0.37400
N656        N  0.23012508  0.79975108  0.99831747    -0.58000
N657        N  0.18477075  0.74048089  0.99289082    -0.37400
N658        N  0.24165858  0.69402431  0.99544405    -0.58000
C659        C  0.30302640  0.78384132  0.00694402     0.26200
C660        C  0.30937560  0.72776895  0.00669833     0.26200
C661        C  0.16331075  0.76594344  0.00623408     0.26200
C662        C  0.16945773  0.71017630  0.00225938     0.26200
C663        C  0.25476686  0.82291369  0.98946689     0.34800
C664        C  0.20048308  0.81576396  0.98924024     0.34800
C665        C  0.27135321  0.67744188  0.98849115     0.34800
C666        C  0.21710334  0.67096719  0.98398894     0.34800
C667        C  0.33622970  0.77751221  0.02100692    -0.22700
C668        C  0.34030067  0.74205010  0.02065665    -0.22700
C669        C  0.13391718  0.75179307  0.02416645    -0.22700
C670        C  0.13781341  0.71632412  0.02162432    -0.22700
C671        C  0.24079991  0.85401887  0.97500577    -0.23700
C672        C  0.20616416  0.84944518  0.97477226    -0.23700
C673        C  0.26553319  0.64333256  0.97370403    -0.23700
C674        C  0.23102202  0.63942840  0.97020011    -0.23700
C675        C  0.28940193  0.81698851  0.99834361    -0.19100
C676        C  0.30352457  0.69214002  0.99778988    -0.19100
C677        C  0.18236745  0.67731087  0.99007487    -0.19100
C678        C  0.16856719  0.80139092  0.99874464    -0.19100
H679        H  0.35585902  0.79641489  0.02918883     0.13800
H680        H  0.36375348  0.72851559  0.02841215     0.13800
H681        H  0.11178214  0.76558184  0.03693621     0.13800
H682        H  0.11931515  0.69725613  0.03215438     0.13800
H683        H  0.25411943  0.87762157  0.96635229     0.12100
H684        H  0.18731899  0.86883818  0.96593268     0.12100
H685        H  0.28401645  0.62313275  0.96643244     0.12100
H686        H  0.21772075  0.61589334  0.95974849     0.12100
H687        H  0.26395008  0.75040389  0.98080877     0.25400
H688        H  0.20633450  0.74348946  0.97283146     0.25400
C689        C  0.04336739  0.75159087  0.27241068     0.85700
C690        C  0.03984523  0.72102850  0.23844747    -0.54500
C691        C  0.50877424  0.71884271  0.21500785     0.08600
C692        C  0.48376461  0.74928847  0.22685139     0.19600
C693        C  0.03581934  0.78356185  0.24261295    -0.55300
C694        C  0.50436112  0.78337049  0.21901433     0.08700
C695        C  0.51006632  0.74969083  0.30310991    -0.54800
C696        C  0.47954165  0.74856481  0.27962980     0.09300
H697        H  0.05983020  0.70176830  0.23353658     0.13800
H698        H  0.45903308  0.74789829  0.20833254    -0.00400
H699        H  0.05278580  0.80535654  0.23914398     0.14100
H700        H  0.51158536  0.74985338  0.34040387     0.13900
C701        C  0.20607439  0.99764068  0.21433954     0.85700
C702        C  0.21033454  0.96509872  0.24364957    -0.54500
C703        C  0.24043819  0.96271276  0.26692305     0.08600
C704        C  0.26421185  0.99454461  0.25970074     0.19600
C705        C  0.21205318  0.52668385  0.24556273    -0.55300
C706        C  0.24170268  0.52686491  0.27039332     0.08700
C707        C  0.23811326  0.99816488  0.18354116    -0.54800
C708        C  0.26866039  0.99587367  0.20692860     0.09300
H709        H  0.19098669  0.94498520  0.24525876     0.13800
H710        H  0.28854760  0.99341377  0.27924191    -0.00400
H711        H  0.19500918  0.54883558  0.24739011     0.14100
H712        H  0.23668050  0.00041768  0.14641863     0.13900
C713        C  0.04244027  0.74401134  0.71342911     0.85700
C714        C  0.03661054  0.77568511  0.74586498    -0.54500
C715        C  0.50806598  0.77807347  0.77158642     0.08600
C716        C  0.48624556  0.74495671  0.76171452     0.19600
C717        C  0.03836626  0.71220281  0.74393868    -0.55300
C718        C  0.50936486  0.71240764  0.76888046     0.08700
C719        C  0.51088629  0.74671452  0.68539591    -0.54800
C720        C  0.48065865  0.74537749  0.70936929     0.09300
H721        H  0.05298052  0.79817366  0.74826423     0.13800
H722        H  0.46223028  0.74478256  0.78147117    -0.00400
H723        H  0.05742567  0.69174691  0.74570581     0.14100
H724        H  0.51157693  0.74824830  0.64818912     0.13900
C725        C  0.20377535  0.99947384  0.77692066     0.85700
C726        C  0.20507335  0.53152776  0.74373568    -0.54500
C727        C  0.23449398  0.53504160  0.71915670     0.08600
C728        C  0.26055776  0.00482488  0.73011825     0.19600
C729        C  0.21015671  0.96961909  0.74211857    -0.55300
C730        C  0.23964867  0.97165813  0.71856689     0.08700
C731        C  0.23659633  0.00023351  0.80693663    -0.54800
C732        C  0.26636970  0.00319922  0.78257372     0.09300
H733        H  0.18502972  0.55098096  0.74389367     0.13800
H734        H  0.28430077  0.00598256  0.70993828    -0.00400
H735        H  0.19403895  0.94728049  0.73614043     0.14100
H736        H  0.23624382  0.99855978  0.84415150     0.13900
C737        C  0.10648416  0.99512766  0.14198466    -0.06900
C738        C  0.13208717  0.97062790  0.13196360    -0.18000
C739        C  0.16389696  0.97117010  0.15440830     0.10300
C740        C  0.17127356  0.99721512  0.18835215    -0.06800
C741        C  0.14414448  0.51347645  0.20105630    -0.18100
C742        C  0.11234687  0.51254565  0.17832489     0.10300
S743        S  0.19429343  0.93747131  0.13944821    -0.33000
S744        S  0.07924638  0.54058755  0.20026559    -0.33000
H745        H  0.07017329  0.55365581  0.15697920     0.28300
H746        H  0.17878727  0.92688756  0.09775108     0.28300
H747        H  0.12709798  0.95085235  0.10578447     0.18900
H748        H  0.14570103  0.52933732  0.23193294     0.18900
C749        C  0.36696877  0.00612119  0.13977593    -0.06900
C750        C  0.36226079  0.98031629  0.17269145    -0.18000
C751        C  0.33054348  0.97574186  0.19412286     0.10300
C752        C  0.30268331  0.99787581  0.18358793    -0.06800
C753        C  0.30934143  0.52415056  0.15238762    -0.18100
C754        C  0.34060573  0.52846681  0.13046930     0.10300
S755        S  0.32629092  0.93881126  0.23066259    -0.33000
S756        S  0.34320689  0.56319675  0.08978002    -0.33000
H757        H  0.37822861  0.56906357  0.09625582     0.28300
H758        H  0.29443598  0.92950662  0.21195200     0.28300
H759        H  0.38266399  0.96204967  0.17944033     0.18900
H760        H  0.28852115  0.54147105  0.14387527     0.18900
C761        C  0.48307618  0.87844928  0.14342164    -0.06900
C762        C  0.47076798  0.84593056  0.12681952    -0.18000
C763        C  0.47637876  0.81475931  0.15041674     0.10300
C764        C  0.49301896  0.81553824  0.19369349    -0.06800
C765        C  0.00258876  0.84861430  0.21375138    -0.18100
C766        C  0.99919524  0.87953386  0.18889634     0.10300
S767        S  0.46426772  0.77500810  0.12101459    -0.33000
S768        S  0.01756769  0.91835035  0.21425872    -0.33000
H769        H  0.03742602  0.92555739  0.17550585     0.28300
H770        H  0.49491436  0.75785574  0.13096679     0.28300
H771        H  0.45828527  0.84427643  0.09349465     0.18900
H772        H  0.01441562  0.85029531  0.24748883     0.18900
C773        C  0.50243768  0.68773571  0.18416949    -0.06900
C774        C  0.47430358  0.66610503  0.19214700    -0.18000
C775        C  0.47088202  0.63312098  0.17039232     0.10300
C776        C  0.49672066  0.62072503  0.14064774    -0.06800
C777        C  0.02190865  0.64410773  0.12953768    -0.18100
C778        C  0.02484886  0.67712195  0.15035285     0.10300
S779        S  0.43282428  0.60864276  0.18169005    -0.33000
S780        S  0.05828962  0.70475998  0.12923333    -0.33000
H781        H  0.04551399  0.73669229  0.14565159     0.28300
H782        H  0.43097128  0.59124758  0.13887203     0.28300
H783        H  0.45510986  0.67455775  0.21612140     0.18900
H784        H  0.03944377  0.63716168  0.10224995     0.18900
C785        C  0.13931705  0.82476477  0.00148222    -0.06900
C786        C  0.11579665  0.82414601  0.96512829    -0.18000
C787        C  0.09051306  0.84938918  0.96259086     0.10300
C788        C  0.08939001  0.87576329  0.99690877    -0.06800
C789        C  0.11201392  0.87532996  0.03431724    -0.18100
C790        C  0.13640764  0.84935067  0.03761914     0.10300
S791        S  0.06170345  0.84721555  0.91401716    -0.33000
S792        S  0.16309952  0.84862413  0.08832142    -0.33000
H793        H  0.16654074  0.81218012  0.08896389     0.28300
H794        H  0.05659516  0.88325579  0.91048078     0.28300
H795        H  0.11800628  0.80468766  0.93783605     0.18900
H796        H  0.11027656  0.89502655  0.06137542     0.18900
C797        C  0.31306534  0.84650534  0.99777836    -0.06900
C798        C  0.32827055  0.85433326  0.95586601    -0.18000
C799        C  0.35430910  0.87875723  0.95408254     0.10300
C800        C  0.36592377  0.89472887  0.99518521    -0.06800
C801        C  0.35023983  0.88761951  0.03697848    -0.18100
C802        C  0.32363569  0.86374551  0.03869987     0.10300
S803        S  0.37201985  0.88825167  0.89876602    -0.33000
S804        S  0.30584471  0.85472231  0.09422309    -0.33000
H805        H  0.27332105  0.84516092  0.07815251     0.28300
H806        H  0.37673578  0.92394699  0.90817994     0.28300
H807        H  0.32013630  0.84088735  0.92458621     0.18900
H808        H  0.35913233  0.90032638  0.06842910     0.18900
C809        C  0.38464810  0.61977464  0.99071815    -0.06900
C810        C  0.37639672  0.63485242  0.03329091    -0.18000
C811        C  0.34943959  0.65805763  0.03690238     0.10300
C812        C  0.33289694  0.66879342  0.99644330    -0.06800
C813        C  0.34308098  0.65579801  0.95342978    -0.18100
C814        C  0.36783943  0.63010126  0.95016975     0.10300
S815        S  0.33641517  0.67173283  0.09377077    -0.33000
S816        S  0.37531048  0.61129132  0.89366703    -0.33000
H817        H  0.40069233  0.58712927  0.90493694     0.28300
H818        H  0.30138239  0.67260555  0.08363054     0.28300
H819        H  0.38951167  0.62669098  0.06422629     0.18900
H820        H  0.33003271  0.66418369  0.92253824     0.18900
C821        C  0.10605658  0.60006881  0.99478236    -0.06900
C822        C  0.10537501  0.62413042  0.95925551    -0.18000
C823        C  0.13157164  0.64791122  0.95456807     0.10300
C824        C  0.15840418  0.64817837  0.98703002    -0.06800
C825        C  0.15981520  0.62319272  0.02146613    -0.18100
C826        C  0.13379904  0.59903184  0.02577156     0.10300
S827        S  0.12877558  0.67782395  0.90751254    -0.33000
S828        S  0.13649222  0.56927998  0.07299506    -0.33000
H829        H  0.10133154  0.56830221  0.08142038     0.28300
H830        H  0.16387248  0.68430838  0.90448532     0.28300
H831        H  0.08440224  0.62416831  0.93476894     0.18900
H832        H  0.18040374  0.62374174  0.04650954     0.18900
C833        C  0.36609883  0.50295022  0.84554601    -0.06900
C834        C  0.34024940  0.52604034  0.86006293    -0.18000
C835        C  0.30870502  0.52823904  0.83758971     0.10300
C836        C  0.30109243  0.00518322  0.80443920    -0.06800
C837        C  0.32663607  0.98153247  0.79048903    -0.18100
C838        C  0.35907150  0.98110348  0.81190873     0.10300
S839        S  0.28060649  0.56275262  0.85611860    -0.33000
S840        S  0.38865365  0.94797425  0.79305436    -0.33000
H841        H  0.40440737  0.94281736  0.83586961     0.28300
H842        H  0.26738180  0.56920772  0.81197467     0.28300
H843        H  0.34472436  0.54305216  0.88956280     0.18900
H844        H  0.32084378  0.96233423  0.76381156     0.18900
C845        C  0.16975527  0.99743412  0.80418866    -0.06900
C846        C  0.14728061  0.96853259  0.79919113    -0.18000
C847        C  0.11577974  0.96692019  0.82155973     0.10300
C848        C  0.10480019  0.49732286  0.84868110    -0.06800
C849        C  0.12874696  0.52384692  0.85756139    -0.18100
C850        C  0.16013204  0.52519599  0.83437322     0.10300
S851        S  0.09122501  0.92739140  0.81395442    -0.33000
S852        S  0.18818527  0.56153387  0.84682250    -0.33000
H853        H  0.16973786  0.57623617  0.88363146     0.28300
H854        H  0.07265528  0.92956968  0.85490176     0.28300
H855        H  0.15372947  0.94579480  0.77919582     0.18900
H856        H  0.12276498  0.54359891  0.88331221     0.18900
C857        C  0.48802517  0.62019469  0.84927220    -0.06900
C858        C  0.99746221  0.61513946  0.80328653    -0.18000
C859        C  0.00150460  0.64415781  0.77478040     0.10300
C860        C  0.49912092  0.68024348  0.79424246    -0.06800
C861        C  0.48785875  0.68383253  0.83946359    -0.18100
C862        C  0.48141457  0.65469516  0.86652845     0.10300
S863        S  0.00899131  0.63514473  0.71470597    -0.33000
S864        S  0.46373757  0.66417461  0.92234999    -0.33000
H865        H  0.44120616  0.63602837  0.91971006     0.28300
H866        H  0.99218441  0.66501563  0.69887333     0.28300
H867        H  0.00126082  0.58925094  0.78881754     0.18900
H868        H  0.48432333  0.70971495  0.85413754     0.18900
C869        C  0.48311081  0.87333476  0.84892874    -0.06900
C870        C  0.49653017  0.87514989  0.80451657    -0.18000
C871        C  0.50182915  0.84496240  0.77723990     0.10300
C872        C  0.49601483  0.81122386  0.79539209    -0.06800
C873        C  0.98315375  0.80613032  0.83909929    -0.18100
C874        C  0.97722294  0.83587332  0.86729373     0.10300
S875        S  0.51442266  0.85170387  0.71858609    -0.33000
S876        S  0.96074159  0.82827999  0.92430392    -0.33000
H877        H  0.95855157  0.79176405  0.92137899     0.28300
H878        H  0.49577865  0.82326023  0.70085047     0.28300
H879        H  0.50323393  0.90026603  0.79088752     0.18900
H880        H  0.97955237  0.78034761  0.85263510     0.18900
C881        C  0.44584870  0.74794634  0.68729866    -0.06900
C882        C  0.44059505  0.77358752  0.65433395    -0.18000
C883        C  0.40879292  0.77834832  0.63288201     0.10300
C884        C  0.38102592  0.75631769  0.64312125    -0.06800
C885        C  0.38575879  0.73119383  0.67705903    -0.18100
C886        C  0.41765835  0.72681187  0.69934264     0.10300
S887        S  0.40390753  0.81329520  0.59261480    -0.33000
S888        S  0.42235667  0.69214312  0.74000375    -0.33000
H889        H  0.38828322  0.68096643  0.73927828     0.28300
H890        H  0.43689750  0.82693732  0.59740647     0.28300
H891        H  0.46161209  0.79027785  0.64554157     0.18900
H892        H  0.36494358  0.71374346  0.68424642     0.18900
C893        C  0.07725282  0.74366170  0.68759853    -0.06900
C894        C  0.10382494  0.76711090  0.70030491    -0.18000
C895        C  0.13462377  0.76895804  0.67620670     0.10300
C896        C  0.14139620  0.74500508  0.64023507    -0.06800
C897        C  0.11641975  0.71991802  0.62938697    -0.18100
C898        C  0.08481366  0.71899246  0.65203417     0.10300
S899        S  0.16298197  0.80416025  0.69151085    -0.33000
S900        S  0.05493375  0.68561938  0.63455596    -0.33000
H901        H  0.06971072  0.67824473  0.59156282     0.28300
H902        H  0.17414016  0.81040608  0.64659611     0.28300
H903        H  0.10155329  0.78473372  0.72921763     0.18900
H904        H  0.12162407  0.70104523  0.60220438     0.18900
C905        C  0.24856981  0.63341638  0.64724704    -0.06900
C906        C  0.27661017  0.61647536  0.66673333    -0.18000
C907        C  0.27344742  0.58432691  0.68919705     0.10300
C908        C  0.24106268  0.56793094  0.69212014    -0.06800
C909        C  0.21292337  0.58562255  0.67264373    -0.18100
C910        C  0.21617340  0.61829433  0.65209676     0.10300
S911        S  0.31114053  0.56658897  0.71577007    -0.33000
S912        S  0.17778849  0.64037980  0.63464348    -0.33000
H913        H  0.19059067  0.67422491  0.64157541     0.28300
H914        H  0.33501012  0.58716172  0.69290556     0.28300
H915        H  0.30121902  0.62879067  0.66453689     0.18900
H916        H  0.18774665  0.57433769  0.67400833     0.18900
C917        C  0.25463706  0.87647222  0.63948106    -0.06900
C918        C  0.25083093  0.90909422  0.61757767    -0.18000
C919        C  0.24871979  0.94081790  0.64234499     0.10300
C920        C  0.25068683  0.94084080  0.69045963    -0.06800
C921        C  0.25527501  0.90891113  0.71272013    -0.18100
C922        C  0.25681787  0.87700630  0.68823809     0.10300
S923        S  0.24169855  0.98109191  0.61252128    -0.33000
S924        S  0.26055520  0.83840805  0.72199362    -0.33000
H925        H  0.23186461  0.82261288  0.70178331     0.28300
H926        H  0.23566462  0.96612507  0.56871356     0.28300
H927        H  0.24900281  0.91005993  0.58051170     0.18900
H928        H  0.25579768  0.90870890  0.74999409     0.18900
C929        C  0.37756632  0.64037904  0.51333882    -0.06900
C930        C  0.40628604  0.64205065  0.48517970    -0.18000
C931        C  0.43240222  0.61766340  0.48896736     0.10300
C932        C  0.43012350  0.59186230  0.52267302    -0.06800
C933        C  0.40207181  0.59091093  0.55181732    -0.18100
C934        C  0.37589040  0.61500593  0.54772613     0.10300
S935        S  0.46721655  0.62024861  0.44911413    -0.33000
S936        S  0.34171672  0.61244158  0.58818789    -0.33000
H937        H  0.33787910  0.64868067  0.59371235     0.28300
H938        H  0.47377755  0.58430911  0.44620547     0.28300
H939        H  0.40777470  0.66167203  0.45894552     0.18900
H940        H  0.40060047  0.57112240  0.57785580     0.18900
C941        C  0.10242380  0.58221876  0.52634748    -0.06900
C942        C  0.09505375  0.60971542  0.49695140    -0.18000
C943        C  0.11944584  0.63452177  0.48706217     0.10300
C944        C  0.15259160  0.63142245  0.50577359    -0.06800
C945        C  0.16055068  0.60264998  0.53296568    -0.18100
C946        C  0.13557035  0.57877336  0.54485214     0.10300
S947        S  0.10677699  0.66853268  0.44889974    -0.33000
S948        S  0.14725826  0.54539142  0.58491461    -0.33000
H949        H  0.11517863  0.54368300  0.60582294     0.28300
H950        H  0.13844751  0.66878490  0.42696072     0.28300
H951        H  0.07001763  0.61173528  0.48126493     0.18900
H952        H  0.18590819  0.59982132  0.54735977     0.18900
C953        C  0.14599466  0.85994066  0.50823189    -0.06900
C954        C  0.15153598  0.88462678  0.54367199    -0.18000
C955        C  0.12583444  0.90744354  0.55727744     0.10300
C956        C  0.09416638  0.90611837  0.53398722    -0.06800
C957        C  0.08867823  0.88152794  0.49855152    -0.18100
C958        C  0.11420001  0.85836903  0.48548444     0.10300
S959        S  0.13530569  0.93789853  0.60381195    -0.33000
S960        S  0.10508225  0.82864222  0.43828713    -0.33000
H961        H  0.13818969  0.82902990  0.42037054     0.28300
H962        H  0.10150968  0.94401229  0.61724011     0.28300
H963        H  0.17575109  0.88545542  0.56182856     0.18900
H964        H  0.06474259  0.88129706  0.47974377     0.18900
C965        C  0.36767590  0.86763450  0.50528101    -0.06900
C966        C  0.39362171  0.86965739  0.47277003    -0.18000
C967        C  0.42001738  0.89355101  0.47861230     0.10300
C968        C  0.42085685  0.91496025  0.51853944    -0.06800
C969        C  0.39443571  0.91358124  0.55034854    -0.18100
C970        C  0.36780155  0.89012773  0.54417986     0.10300
S971        S  0.45171908  0.89533509  0.43424299    -0.33000
S972        S  0.33595379  0.88901548  0.58836264    -0.33000
H973        H  0.33167460  0.85268137  0.58716820     0.28300
H974        H  0.45972965  0.93074237  0.44052939     0.28300
H975        H  0.39323056  0.85256967  0.44268052     0.18900
H976        H  0.39505300  0.93038168  0.58070530     0.18900
C977        C  0.14382367  0.74776541  0.34368593    -0.06900
C978        C  0.12114815  0.71965393  0.34423921    -0.18000
C979        C  0.08879609  0.72075762  0.32304333     0.10300
C980        C  0.07844159  0.75060178  0.29815708    -0.06800
C981        C  0.10232170  0.77826453  0.29599172    -0.18100
C982        C  0.13414109  0.77740319  0.31871535     0.10300
S983        S  0.06098443  0.68360635  0.32923360    -0.33000
S984        S  0.16035268  0.81578339  0.31515816    -0.33000
H985        H  0.17904593  0.81150482  0.35597693     0.28300
H986        H  0.08501525  0.66093476  0.34866769     0.28300
H987        H  0.12872166  0.69675064  0.36243875     0.18900
H988        H  0.09669095  0.80171147  0.27787510     0.18900
C989        C  0.38185790  0.74946554  0.35049914    -0.06900
C990        C  0.40602201  0.77599403  0.35853174    -0.18000
C991        C  0.43713205  0.77686138  0.33508153     0.10300
C992        C  0.44549272  0.75006388  0.30308424    -0.06800
C993        C  0.42103592  0.72397728  0.29409203    -0.18100
C994        C  0.38973286  0.72308559  0.31761972     0.10300
S995        S  0.46472824  0.81344064  0.34702837    -0.33000
S996        S  0.36210653  0.68647772  0.30591118    -0.33000
H997        H  0.34859132  0.68436748  0.35036027     0.28300
H998        H  0.47632950  0.81621238  0.30170047     0.28300
H999        H  0.40060113  0.79641103  0.38364857     0.18900
H1000       H  0.42681202  0.70322310  0.26997167     0.18900
C1001       C  0.25582235  0.86823527  0.34605138    -0.06900
C1002       C  0.25784637  0.90192360  0.36688951    -0.18000
C1003       C  0.25424343  0.93263679  0.34198199     0.10300
C1004       C  0.24850972  0.93089302  0.29427626    -0.06800
C1005       C  0.24760688  0.89769271  0.27262346    -0.18100
C1006       C  0.25165728  0.86663485  0.29747366     0.10300
S1007       S  0.25548515  0.97334696  0.37365697    -0.33000
S1008       S  0.25232798  0.82655038  0.26435952    -0.33000
H1009       H  0.22888880  0.80911192  0.29162701     0.28300
H1010       H  0.22688477  0.98732268  0.35124502     0.28300
H1011       H  0.26171262  0.90485021  0.40365892     0.18900
H1012       H  0.24342041  0.89592362  0.23577666     0.18900
C1013       C  0.25536181  0.62254062  0.35173500    -0.06900
C1014       C  0.28045893  0.61230564  0.32003850    -0.18000
C1015       C  0.27810269  0.58031794  0.29492934     0.10300
C1016       C  0.24995945  0.55780608  0.30139253    -0.06800
C1017       C  0.22535808  0.56806345  0.33367331    -0.18100
C1018       C  0.22763244  0.59966750  0.35842016     0.10300
S1019       S  0.31077776  0.56921107  0.25417486    -0.33000
S1020       S  0.19347072  0.60965606  0.39744578    -0.33000
H1021       H  0.19337612  0.64556103  0.38905455     0.28300
H1022       H  0.33017813  0.59975534  0.25983547     0.28300
H1023       H  0.30222148  0.62911298  0.31564895     0.18900
H1024       H  0.20338725  0.55158126  0.33875208     0.18900
O1025       O  0.76156628  0.18488187  0.36567577    -0.87300
O1026       O  0.75990219  0.19344038  0.63141656    -0.87400
O1027       O  0.82012490  0.15166140  0.50321081    -0.89100
O1028       O  0.71104704  0.14672838  0.50254877    -0.87900
O1029       O  0.66885726  0.18771093  0.50014077    -0.87500
O1030       O  0.85984180  0.19512092  0.50018246    -0.88800
O1031       O  0.76015683  0.15120286  0.57417318    -0.87300
O1032       O  0.76320478  0.14632479  0.42557892    -0.86900
Zr1033     Zr  0.76417927  0.17806617  0.49854610     2.84300
O1034       O  0.72949550  0.21332453  0.54429577    -1.08900
O1035       O  0.79650170  0.21194924  0.44891680    -1.09600
C1036       C  0.76151493  0.15364389  0.38247337     1.05800
C1037       C  0.75859138  0.16129598  0.61681363     1.05800
C1038       C  0.85091421  0.16315192  0.50395352     1.08800
C1039       C  0.67960066  0.15615014  0.50332105     1.06500
H1040       H  0.81134665  0.20129384  0.56562502     0.32100
O1041       O  0.79653556  0.21500175  0.54614722    -1.29800
H1042       H  0.71499589  0.19461181  0.43047624     0.31800
O1043       O  0.72944879  0.21013339  0.44850148    -1.31500
O1044       O  0.75935627  0.31122342  0.62584508    -0.87300
O1045       O  0.76146238  0.30429877  0.36298410    -0.88800
O1046       O  0.85825295  0.25342060  0.56919340    -0.87300
O1047       O  0.66404306  0.24326256  0.56627770    -0.87400
O1048       O  0.66490903  0.24516534  0.42198587    -0.87100
O1049       O  0.85820533  0.24791877  0.42412433    -0.86900
O1050       O  0.81280204  0.34628757  0.49712942    -0.87300
O1051       O  0.70378818  0.34268064  0.49812916    -0.86700
O1052       O  0.85526908  0.30533912  0.49654070    -0.87800
O1053       O  0.66402671  0.29909453  0.49829498    -0.87000
O1054       O  0.81982195  0.25266061  0.62838901    -0.87400
O1055       O  0.81994241  0.24604227  0.36396636    -0.87100
O1056       O  0.70383206  0.24725936  0.36340970    -0.86700
O1057       O  0.70239689  0.24798915  0.62614423    -0.87100
O1058       O  0.75982879  0.34829596  0.56499628    -0.87400
O1059       O  0.75852370  0.34479339  0.42140272    -0.88800
Zr1060     Zr  0.76141431  0.25050244  0.59320868     2.83100
Zr1061     Zr  0.76192589  0.24518653  0.39890875     2.83500
Zr1062     Zr  0.82855453  0.24895828  0.49651834     2.84100
Zr1063     Zr  0.69468111  0.24471816  0.49497817     2.83400
Zr1064     Zr  0.75934772  0.31560288  0.49406910     2.84200
O1065       O  0.72638984  0.27962144  0.44626621    -1.09400
O1066       O  0.79430910  0.28410723  0.54331966    -1.08900
C1067       C  0.75896207  0.34222791  0.60828402     1.05800
C1068       C  0.75981912  0.33641238  0.37837561     1.08400
C1069       C  0.85064556  0.25411156  0.61215658     1.06000
C1070       C  0.67150531  0.24500057  0.60940948     1.06300
C1071       C  0.67288225  0.24694752  0.37922418     1.05900
C1072       C  0.85077980  0.24740464  0.38089485     1.05500
C1073       C  0.84418475  0.33682919  0.49807184     1.05900
C1074       C  0.67306093  0.33124063  0.49997211     1.05400
H1075       H  0.80885735  0.29665035  0.42905131     0.32100
O1076       O  0.79473934  0.28180493  0.44729080    -1.30400
H1077       H  0.71163357  0.29657292  0.56114760     0.32100
O1078       O  0.72650868  0.28199312  0.54285872    -1.31800
N1079       N  0.95998858  0.50138593  0.52780110    -0.37400
N1080       N  0.51007641  0.44572388  0.52886312    -0.58000
N1081       N  0.56389195  0.49542597  0.54104427    -0.37400
N1082       N  0.51651967  0.04944866  0.55127348    -0.58000
C1083       C  0.94122649  0.47487549  0.51044484     0.26200
C1084       C  0.94611682  0.02911132  0.52039735     0.26200
C1085       C  0.58002023  0.46669924  0.52530186     0.26200
C1086       C  0.58397111  0.02027729  0.53933462     0.26200
C1087       C  0.97948316  0.42742999  0.53360563     0.34800
C1088       C  0.53553518  0.42427906  0.54084541     0.34800
C1089       C  0.98781408  0.07162946  0.55086048     0.34800
C1090       C  0.54494074  0.06717704  0.56263527     0.34800
C1091       C  0.91329453  0.48773460  0.48675040    -0.22700
C1092       C  0.91811523  0.02033146  0.49323110    -0.22700
C1093       C  0.60892432  0.47577422  0.50139048    -0.22700
C1094       C  0.61172648  0.00766890  0.51493416    -0.22700
C1095       C  0.98670549  0.39393802  0.54786467    -0.23700
C1096       C  0.52300752  0.39180015  0.55178995    -0.23700
C1097       C  0.99797411  0.10410280  0.56737562    -0.23700
C1098       C  0.53670826  0.10052169  0.57774613    -0.23700
C1099       C  0.94770733  0.43957499  0.51870537    -0.19100
C1100       C  0.95577189  0.06321407  0.53269938    -0.19100
C1101       C  0.57762327  0.05559606  0.55012813    -0.19100
C1102       C  0.56973848  0.43257015  0.53407363    -0.19100
H1103       H  0.89332679  0.47292709  0.46962896     0.13800
H1104       H  0.90113474  0.03782547  0.47539019     0.13800
H1105       H  0.62704741  0.45849370  0.48486569     0.13800
H1106       H  0.63174120  0.02249810  0.49915255     0.13800
H1107       H  0.96887692  0.37297762  0.55313585     0.12100
H1108       H  0.53747829  0.36893352  0.56102456     0.12100
H1109       H  0.98226054  0.12696747  0.57270775     0.12100
H1110       H  0.55420088  0.12115666  0.58723010     0.12100
H1111       H  0.97978482  0.49926311  0.55162500     0.25400
H1112       H  0.54349482  0.49600846  0.56379849     0.25400
O1113       O  0.98237760  0.43488581  0.86333624    -0.87300
O1114       O  0.98511560  0.43899120  0.12688938    -0.87400
O1115       O  0.53326360  0.39531455  0.99254774    -0.89100
O1116       O  0.92340234  0.40408294  0.99061118    -0.87900
O1117       O  0.88570984  0.44973676  0.99023519    -0.87500
O1118       O  0.57722269  0.43445215  0.99188422    -0.88800
O1119       O  0.98136349  0.39853886  0.06811881    -0.86500
O1120       O  0.97970121  0.39680333  0.92293182    -0.86900
Zr1121     Zr  0.98071950  0.42795315  0.99488109     2.84300
O1122       O  0.94981273  0.46539454  0.04273955    -1.08900
O1123       O  0.51693939  0.45971080  0.94526367    -1.09600
C1124       C  0.98025576  0.40348308  0.87993454     1.05800
C1125       C  0.98364335  0.40706341  0.11119964     1.05800
C1126       C  0.56502423  0.40343558  0.99179536     1.08800
C1127       C  0.89323086  0.41723088  0.98837967     1.06500
H1128       H  0.53140171  0.44522612  0.05984823     0.32100
O1129       O  0.51781840  0.46092285  0.04170684    -1.29800
H1130       H  0.93456727  0.45062114  0.92735802     0.31800
O1131       O  0.94995230  0.46438988  0.94615334    -1.31500
O1132       O  0.99016419  0.05952448  0.12844717    -0.87300
O1133       O  0.98724917  0.05708758  0.86496515    -0.88800
O1134       O  0.58303350  0.48972638  0.06566392    -0.87300
O1135       O  0.89023071  0.50180178  0.06659492    -0.87400
O1136       O  0.88968635  0.00202363  0.92273767    -0.87100
O1137       O  0.58279933  0.99282384  0.92297526    -0.86900
O1138       O  0.54917472  0.09069032  0.99577924    -0.87300
O1139       O  0.94011395  0.09875924  0.98670061    -0.86700
O1140       O  0.58695148  0.04523829  0.99660044    -0.87800
O1141       O  0.89620475  0.05959036  0.98444766    -0.87000
O1142       O  0.54519960  0.49478627  0.12522407    -0.87400
O1143       O  0.54405220  0.99646842  0.86340296    -0.87100
O1144       O  0.92742179  0.99860533  0.86280188    -0.86700
O1145       O  0.92872512  0.49929278  0.12647960    -0.87100
O1146       O  0.99389455  0.09774854  0.06877470    -0.87400
O1147       O  0.99386201  0.09627476  0.92471496    -0.88800
Zr1148     Zr  0.98684924  0.49758943  0.09196451     2.83100
Zr1149     Zr  0.98617065  0.99592418  0.89746979     2.83500
Zr1150     Zr  0.55314636  0.49211614  0.99322480     2.84100
Zr1151     Zr  0.91921252  0.50200380  0.99385134     2.83400
Zr1152     Zr  0.99229891  0.06622202  0.99593904     2.84200
O1153       O  0.95643522  0.03355627  0.94764295    -1.09400
O1154       O  0.52375088  0.03071294  0.04523499    -1.08900
C1155       C  0.99285091  0.09072620  0.11192597     1.05800
C1156       C  0.99025080  0.08895462  0.88180457     1.08400
C1157       C  0.57584508  0.49155989  0.10874010     1.06000
C1158       C  0.89788848  0.50112210  0.10969923     1.06300
C1159       C  0.89671271  0.00079902  0.87958561     1.05900
C1160       C  0.57492106  0.99505851  0.88004049     1.05500
C1161       C  0.57937641  0.07772097  0.99536472     1.05900
C1162       C  0.90865707  0.09032650  0.98163356     1.05400
H1163       H  0.53786998  0.04366166  0.92992158     0.32100
O1164       O  0.52260577  0.02982863  0.94791022    -1.30400
H1165       H  0.94169354  0.05267130  0.06133467     0.32100
O1166       O  0.95533513  0.03636864  0.04374126    -1.31800
N1167       N  0.78810499  0.25204095  0.95273445    -0.37400
N1168       N  0.73106577  0.29887740  0.96605249    -0.58000
N1169       N  0.68654682  0.24072134  0.97310202    -0.37400
N1170       N  0.74279959  0.19368241  0.95986197    -0.58000
C1171       C  0.80412263  0.28211549  0.96374459     0.26200
C1172       C  0.81058396  0.22612919  0.96033063     0.26200
C1173       C  0.66630538  0.26646852  0.98928193     0.26200
C1174       C  0.67251362  0.21046689  0.98576778     0.26200
C1175       C  0.75508558  0.32202400  0.95501570     0.34800
C1176       C  0.70125979  0.31602639  0.96476753     0.34800
C1177       C  0.77130459  0.17637537  0.94826828     0.34800
C1178       C  0.71740973  0.17029109  0.95756088     0.34800
C1179       C  0.83743734  0.27535149  0.97701606    -0.22700
C1180       C  0.84157022  0.23996620  0.97463238    -0.22700
C1181       C  0.63902232  0.25250420  0.01250652    -0.22700
C1182       C  0.64291787  0.21697980  0.01023344    -0.22700
C1183       C  0.74061112  0.35415327  0.94621474    -0.23700
C1184       C  0.70621278  0.35028429  0.95213409    -0.23700
C1185       C  0.76404860  0.14166312  0.93862826    -0.23700
C1186       C  0.72963873  0.13786362  0.94407194    -0.23700
C1187       C  0.78991616  0.31562884  0.96043847    -0.19100
C1188       C  0.80405241  0.19035338  0.95393476    -0.19100
C1189       C  0.68417437  0.17722594  0.97223662    -0.19100
C1190       C  0.67057631  0.30198913  0.98030591    -0.19100
H1191       H  0.85684002  0.29395685  0.98728773     0.13800
H1192       H  0.86476732  0.22607904  0.98275189     0.13800
H1193       H  0.61817527  0.26643508  0.02857632     0.13800
H1194       H  0.62560214  0.19808858  0.02421966     0.13800
H1195       H  0.75362189  0.37808514  0.93822435     0.12100
H1196       H  0.68728031  0.37066098  0.94948506     0.12100
H1197       H  0.78183015  0.12099182  0.93044679     0.12100
H1198       H  0.71554456  0.11375542  0.94058157     0.12100
H1199       H  0.76427822  0.24961175  0.93721448     0.25400
H1200       H  0.70591957  0.24333897  0.94930207     0.25400
C1201       C  0.54287532  0.25270438  0.27653915     0.85700
C1202       C  0.53906412  0.22122732  0.24417620    -0.54500
C1203       C  0.00972771  0.21873543  0.22093680     0.08600
C1204       C  0.98525644  0.24985344  0.23123178     0.19600
C1205       C  0.53626178  0.28395575  0.24496736    -0.55300
C1206       C  0.00629215  0.28344301  0.22263632     0.08700
C1207       C  0.01102507  0.25110019  0.30775500    -0.54800
C1208       C  0.98053194  0.25025080  0.28381854     0.09300
H1209       H  0.55874715  0.20148896  0.24068882     0.13800
H1210       H  0.96074164  0.24854497  0.21222292    -0.00400
H1211       H  0.55369982  0.30524558  0.24051007     0.14100
H1212       H  0.01241869  0.25123470  0.34504093     0.13900
C1213       C  0.70624764  0.49374342  0.21138676     0.85700
C1214       C  0.71101099  0.46163837  0.24125513    -0.54500
C1215       C  0.74061371  0.46067713  0.26596843     0.08600
C1216       C  0.76354642  0.49319756  0.25883665     0.19600
C1217       C  0.71220589  0.02819610  0.24486900    -0.55300
C1218       C  0.74194579  0.02834168  0.26943049     0.08700
C1219       C  0.73884273  0.49514191  0.18171516    -0.54800
C1220       C  0.76893931  0.49377305  0.20626027     0.09300
H1221       H  0.69240781  0.44076195  0.24212080     0.13800
H1222       H  0.78761582  0.49308017  0.27905699    -0.00400
H1223       H  0.69559888  0.05066969  0.24627693     0.14100
H1224       H  0.73824275  0.49751299  0.14459497     0.13900
C1225       C  0.54244451  0.24637723  0.71447849     0.85700
C1226       C  0.53791269  0.27743827  0.74822737    -0.54500
C1227       C  0.00727435  0.27786420  0.77120014     0.08600
C1228       C  0.98598417  0.24443225  0.76163876     0.19600
C1229       C  0.53836938  0.21421924  0.74416899    -0.55300
C1230       C  0.00965752  0.21239789  0.76874202     0.08700
C1231       C  0.01021617  0.24696124  0.68516855    -0.54800
C1232       C  0.98019707  0.24494426  0.70935316     0.09300
H1233       H  0.55503078  0.29938097  0.75064817     0.13800
H1234       H  0.96207254  0.24384651  0.78161091    -0.00400
H1235       H  0.55733119  0.19364027  0.74521404     0.14100
H1236       H  0.01060909  0.24932618  0.64805133     0.13900
C1237       C  0.70334584  0.49882732  0.77287207     0.85700
C1238       C  0.70657135  0.03189858  0.74638137    -0.54500
C1239       C  0.73649129  0.03532010  0.72283200     0.08600
C1240       C  0.75983451  0.50300429  0.72536143     0.19600
C1241       C  0.70981292  0.46766865  0.74010401    -0.55300
C1242       C  0.73903312  0.46950343  0.71566176     0.08700
C1243       C  0.73641877  0.50007481  0.80258983    -0.54800
C1244       C  0.76613836  0.50270030  0.77788798     0.09300
H1245       H  0.68700158  0.05183693  0.74697861     0.13800
H1246       H  0.78330999  0.50355480  0.70461100    -0.00400
H1247       H  0.69445849  0.44431051  0.73818168     0.14100
H1248       H  0.73633072  0.49873570  0.83982811     0.13900
C1249       C  0.60639417  0.48973440  0.13968925    -0.06900
C1250       C  0.63370275  0.46850222  0.12523833    -0.18000
C1251       C  0.66566211  0.46916388  0.14739234     0.10300
C1252       C  0.67153037  0.49228206  0.18531306    -0.06800
C1253       C  0.64417158  0.01618303  0.20066182    -0.18100
C1254       C  0.61229256  0.01521421  0.17836702     0.10300
S1255       S  0.69785573  0.43903578  0.12709487    -0.33000
S1256       S  0.58061115  0.04630441  0.19687950    -0.33000
H1257       H  0.57072231  0.05577827  0.15223016     0.28300
H1258       H  0.68337103  0.43257764  0.08335930     0.28300
H1259       H  0.62996384  0.45117168  0.09586068     0.18900
H1260       H  0.64639176  0.03394794  0.22955168     0.18900
C1261       C  0.86773750  0.50286612  0.14057153    -0.06900
C1262       C  0.86262367  0.47713846  0.17348687    -0.18000
C1263       C  0.83079374  0.47318454  0.19489813     0.10300
C1264       C  0.80329614  0.49569202  0.18404473    -0.06800
C1265       C  0.80847989  0.02414629  0.15130501    -0.18100
C1266       C  0.83994141  0.02886992  0.12995751     0.10300
S1267       S  0.82578523  0.43654250  0.23169763    -0.33000
S1268       S  0.84237414  0.06335163  0.08870562    -0.33000
H1269       H  0.87724333  0.07015093  0.09545757     0.28300
H1270       H  0.79466689  0.42684011  0.21108045     0.28300
H1271       H  0.88270823  0.45850666  0.18021602     0.18900
H1272       H  0.78750817  0.04114562  0.14236176     0.18900
C1273       C  0.98539207  0.37695547  0.14364070    -0.06900
C1274       C  0.97385919  0.34403613  0.12758816    -0.18000
C1275       C  0.97919572  0.31340457  0.15238095     0.10300
C1276       C  0.99529119  0.31507099  0.19602789    -0.06800
C1277       C  0.50357175  0.34869824  0.21289026    -0.18100
C1278       C  0.49975267  0.37913319  0.18711925     0.10300
S1279       S  0.96673204  0.27324138  0.12425337    -0.33000
S1280       S  0.51778066  0.41846108  0.21150376    -0.33000
H1281       H  0.53792135  0.42489821  0.17276338     0.28300
H1282       H  0.99633006  0.25527674  0.13659359     0.28300
H1283       H  0.96182991  0.34166927  0.09402709     0.18900
H1284       H  0.51537598  0.35105156  0.24659562     0.18900
C1285       C  0.00311316  0.18752897  0.19043242    -0.06900
C1286       C  0.97692729  0.16407735  0.20133686    -0.18000
C1287       C  0.97314863  0.13170260  0.17785412     0.10300
C1288       C  0.99648222  0.12195884  0.14303968    -0.06800
C1289       C  0.52321989  0.14392591  0.13576226    -0.18100
C1290       C  0.52654170  0.17656360  0.15742405     0.10300
S1291       S  0.93793449  0.10444292  0.19347225    -0.33000
S1292       S  0.56252167  0.20258233  0.14062384    -0.33000
H1293       H  0.54871826  0.23522543  0.15241983     0.28300
H1294       H  0.93181432  0.09063206  0.14908926     0.28300
H1295       H  0.95977258  0.17056317  0.22907596     0.18900
H1296       H  0.54227823  0.13591969  0.11094701     0.18900
C1297       C  0.64153877  0.32553022  0.98723941    -0.06900
C1298       C  0.61597600  0.32545081  0.95345127    -0.18000
C1299       C  0.59038923  0.35053676  0.95425380     0.10300
C1300       C  0.58978223  0.37528711  0.99059300    -0.06800
C1301       C  0.61480388  0.37470438  0.02518871    -0.18100
C1302       C  0.64074146  0.34999274  0.02392323     0.10300
S1303       S  0.56121749  0.35141238  0.90607859    -0.33000
S1304       S  0.67288528  0.35191314  0.06852919    -0.33000
H1305       H  0.67966646  0.31597448  0.06845265     0.28300
H1306       H  0.55884706  0.38790143  0.90418574     0.28300
H1307       H  0.61713096  0.30693716  0.92492042     0.18900
H1308       H  0.61435994  0.39392560  0.05294076     0.18900
C1309       C  0.81276002  0.34528633  0.96767531    -0.06900
C1310       C  0.83215561  0.35557418  0.93028724    -0.18000
C1311       C  0.85808060  0.37975628  0.93631467     0.10300
C1312       C  0.86504074  0.39342977  0.98061822    -0.06800
C1313       C  0.84473657  0.38437783  0.01774652    -0.18100
C1314       C  0.81861331  0.36012937  0.01190847     0.10300
S1315       S  0.88169891  0.39198968  0.88651566    -0.33000
S1316       S  0.79508133  0.34863935  0.06264864    -0.33000
H1317       H  0.77717923  0.31968936  0.04528606     0.28300
H1318       H  0.88134110  0.42760539  0.89832056     0.28300
H1319       H  0.82754509  0.34403790  0.89650759     0.18900
H1320       H  0.84992043  0.39549727  0.05160901     0.18900
C1321       C  0.88462173  0.11793233  0.97261935    -0.06900
C1322       C  0.87004857  0.13427782  0.01085999    -0.18000
C1323       C  0.84337489  0.15757490  0.00561815     0.10300
C1324       C  0.83218949  0.16584698  0.96090467    -0.06800
C1325       C  0.84766770  0.15052408  0.92237054    -0.18100
C1326       C  0.87362119  0.12610854  0.92764785     0.10300
S1327       S  0.82472596  0.17560467  0.05734940    -0.33000
S1328       S  0.89099980  0.10680279  0.87566685    -0.33000
H1329       H  0.91442147  0.08388840  0.89555526     0.28300
H1330       H  0.79143386  0.17884936  0.04008608     0.28300
H1331       H  0.87864703  0.12776912  0.04517079     0.18900
H1332       H  0.83891162  0.15710356  0.88815796     0.18900
C1333       C  0.60731368  0.10188661  0.99010672    -0.06900
C1334       C  0.60723371  0.12192406  0.95038448    -0.18000
C1335       C  0.63365472  0.14481637  0.94194868     0.10300
C1336       C  0.66005029  0.14837755  0.97468130    -0.06800
C1337       C  0.66088677  0.12746006  0.01361038    -0.18100
C1338       C  0.63462818  0.10410214  0.02174015     0.10300
S1339       S  0.63185631  0.16936441  0.88961886    -0.33000
S1340       S  0.63657362  0.07933744  0.07384926    -0.33000
H1341       H  0.60122317  0.07731279  0.08026266     0.28300
H1342       H  0.66708160  0.17464163  0.88565596     0.28300
H1343       H  0.58662194  0.11936931  0.92551928     0.18900
H1344       H  0.68126104  0.13056576  0.03869726     0.18900
C1345       C  0.86589021  0.00278683  0.84899573    -0.06900
C1346       C  0.84096369  0.02773205  0.86084670    -0.18000
C1347       C  0.80905621  0.02882029  0.83892678     0.10300
C1348       C  0.80104520  0.50499150  0.79974747    -0.06800
C1349       C  0.82730040  0.48248692  0.78485508    -0.18100
C1350       C  0.85949274  0.48171420  0.80716721     0.10300
S1351       S  0.78078723  0.06370475  0.85571725    -0.33000
S1352       S  0.89028917  0.45105589  0.78483057    -0.33000
H1353       H  0.90740818  0.44466775  0.82622016     0.28300
H1354       H  0.76603964  0.06784045  0.81195521     0.28300
H1355       H  0.84623916  0.04650359  0.88822748     0.18900
H1356       H  0.82236299  0.46451242  0.75645363     0.18900
C1357       C  0.66890714  0.49831440  0.79923064    -0.06900
C1358       C  0.64211198  0.47532103  0.78574154    -0.18000
C1359       C  0.61086937  0.47414813  0.80913181     0.10300
C1360       C  0.60471387  0.99726535  0.84904512    -0.06800
C1361       C  0.62876704  0.02354799  0.85822693    -0.18100
C1362       C  0.66006673  0.02493198  0.83502339     0.10300
S1363       S  0.57996851  0.44219796  0.79015141    -0.33000
S1364       S  0.68835902  0.06085548  0.84851293    -0.33000
H1365       H  0.66548044  0.08082892  0.87505655     0.28300
H1366       H  0.56876117  0.43378683  0.83437380     0.28300
H1367       H  0.64453841  0.45811891  0.75631212     0.18900
H1368       H  0.62308057  0.04294609  0.88457261     0.18900
C1369       C  0.99049430  0.12057860  0.85121989    -0.06900
C1370       C  0.49786158  0.11776679  0.80600685    -0.18000
C1371       C  0.50236265  0.14647382  0.77716076     0.10300
C1372       C  0.00042334  0.18043874  0.79504151    -0.06800
C1373       C  0.99179621  0.18434276  0.84121259    -0.18100
C1374       C  0.98637564  0.15546462  0.86910432     0.10300
S1375       S  0.51113578  0.13675416  0.71755058    -0.33000
S1376       S  0.97376083  0.16620284  0.92709840    -0.33000
H1377       H  0.94543293  0.14422650  0.92427262     0.28300
H1378       H  0.49481857  0.16642691  0.70031317     0.28300
H1379       H  0.50117316  0.09174897  0.79174530     0.18900
H1380       H  0.98978096  0.21035738  0.85606325     0.18900
C1381       C  0.98013645  0.37166043  0.84879745    -0.06900
C1382       C  0.99214136  0.37410970  0.80375124    -0.18000
C1383       C  0.99800305  0.34425775  0.77627112     0.10300
C1384       C  0.99423567  0.31041190  0.79487877    -0.06800
C1385       C  0.47925976  0.30925091  0.83713237    -0.18100
C1386       C  0.47110345  0.33940869  0.86312348     0.10300
S1387       S  0.00888086  0.35165749  0.71714837    -0.33000
S1388       S  0.44701324  0.33392249  0.91536683    -0.33000
H1389       H  0.43864451  0.29862233  0.90836726     0.28300
H1390       H  0.99412501  0.32077662  0.70028603     0.28300
H1391       H  0.99750560  0.39947521  0.78984759     0.18900
H1392       H  0.47363949  0.28381511  0.85055307     0.18900
C1393       C  0.94545262  0.24759912  0.68756483    -0.06900
C1394       C  0.93994081  0.27378386  0.65539379    -0.18000
C1395       C  0.90811010  0.27858078  0.63426894     0.10300
C1396       C  0.88084449  0.25579490  0.64359180    -0.06800
C1397       C  0.88579971  0.23009002  0.67667318    -0.18100
C1398       C  0.91758644  0.22593961  0.69912090     0.10300
S1399       S  0.90236400  0.31470829  0.59608935    -0.33000
S1400       S  0.92254875  0.19111232  0.73950981    -0.33000
H1401       H  0.88838736  0.18021336  0.73941042     0.28300
H1402       H  0.93663567  0.32504169  0.59447525     0.28300
H1403       H  0.96066860  0.29094023  0.64703924     0.18900
H1404       H  0.86526341  0.21211084  0.68309802     0.18900
C1405       C  0.57680864  0.24527181  0.68772091    -0.06900
C1406       C  0.60504457  0.26600410  0.70210301    -0.18000
C1407       C  0.63610339  0.26619359  0.67820734     0.10300
C1408       C  0.64105797  0.24351539  0.64026827    -0.06800
C1409       C  0.61405452  0.22113319  0.62748448    -0.18100
C1410       C  0.58246786  0.22168346  0.65026982     0.10300
S1411       S  0.66756618  0.29784541  0.69590406    -0.33000
S1412       S  0.55020083  0.19130508  0.63075274    -0.33000
H1413       H  0.56296688  0.18638665  0.58602434     0.28300
H1414       H  0.67423972  0.30877911  0.65091976     0.28300
H1415       H  0.60376606  0.28257887  0.73226606     0.18900
H1416       H  0.61765334  0.20310560  0.59884556     0.18900
C1417       C  0.75294909  0.13316307  0.65056641    -0.06900
C1418       C  0.78063668  0.11639924  0.67143215    -0.18000
C1419       C  0.77667785  0.08477166  0.69515930     0.10300
C1420       C  0.74405794  0.06866255  0.69715602    -0.06800
C1421       C  0.71637399  0.08690159  0.67758702    -0.18100
C1422       C  0.72026825  0.11916204  0.65648788     0.10300
S1423       S  0.81336457  0.06720844  0.72441870    -0.33000
S1424       S  0.68223180  0.14213289  0.63955385    -0.33000
H1425       H  0.69597476  0.17572064  0.64439747     0.28300
H1426       H  0.83780845  0.08964767  0.70604222     0.28300
H1427       H  0.80543800  0.12833271  0.66927023     0.18900
H1428       H  0.69095870  0.07634445  0.67915138     0.18900
C1429       C  0.75586085  0.37454633  0.63776272    -0.06900
C1430       C  0.73970690  0.40362908  0.61783940    -0.18000
C1431       C  0.73646801  0.43559611  0.64139650     0.10300
C1432       C  0.74959433  0.43933999  0.68621255    -0.06800
C1433       C  0.76670960  0.41100734  0.70608551    -0.18100
C1434       C  0.76990653  0.37876321  0.68245993     0.10300
S1435       S  0.71446521  0.47141144  0.61469011    -0.33000
S1436       S  0.79249862  0.34434006  0.71058154    -0.33000
H1437       H  0.76356145  0.32285597  0.71193073     0.28300
H1438       H  0.70903828  0.45510943  0.57154651     0.28300
H1439       H  0.72894399  0.40124309  0.58357506     0.18900
H1440       H  0.77641243  0.41359425  0.74096068     0.18900
C1441       C  0.87807952  0.13798880  0.51161699    -0.06900
C1442       C  0.90649702  0.13796669  0.48276007    -0.18000
C1443       C  0.93258585  0.11381075  0.48875159     0.10300
C1444       C  0.93077307  0.09075948  0.52576967    -0.06800
C1445       C  0.90310675  0.09161426  0.55546339    -0.18100
C1446       C  0.87647027  0.11475574  0.54849081     0.10300
S1447       S  0.96670141  0.11280144  0.44758754    -0.33000
S1448       S  0.84124461  0.11505736  0.58778000    -0.33000
H1449       H  0.85187937  0.08684964  0.61456702     0.28300
H1450       H  0.97181338  0.07657578  0.44808336     0.28300
H1451       H  0.90772085  0.15595872  0.45453594     0.18900
H1452       H  0.90226719  0.07353340  0.58359648     0.18900
C1453       C  0.60410421  0.08174577  0.53984794    -0.06900
C1454       C  0.59618514  0.10730061  0.50763310    -0.18000
C1455       C  0.62045732  0.13114244  0.49373912     0.10300
C1456       C  0.65401805  0.12897560  0.51122194    -0.06800
C1457       C  0.66240462  0.10221039  0.54158963    -0.18100
C1458       C  0.63755153  0.07967036  0.55766601     0.10300
S1459       S  0.60708221  0.16264993  0.45230554    -0.33000
S1460       S  0.64975340  0.04956079  0.60174654    -0.33000
H1461       H  0.61805459  0.05013430  0.62386639     0.28300
H1462       H  0.63822730  0.16200467  0.42901000     0.28300
H1463       H  0.57086900  0.10839806  0.49263370     0.18900
H1464       H  0.68805017  0.10018012  0.55526540     0.18900
C1465       C  0.64630839  0.35685470  0.50742811    -0.06900
C1466       C  0.64938370  0.37892566  0.54614130    -0.18000
C1467       C  0.62371400  0.40246714  0.55740084     0.10300
C1468       C  0.59480593  0.40448730  0.52857699    -0.06800
C1469       C  0.59150237  0.38209125  0.49023507    -0.18100
C1470       C  0.61691050  0.35812655  0.47940992     0.10300
S1471       S  0.62929009  0.42906435  0.60874870    -0.33000
S1472       S  0.61067549  0.33097436  0.42876546    -0.33000
H1473       H  0.64529145  0.32593195  0.41924335     0.28300
H1474       H  0.59456859  0.43526041  0.61680627     0.28300
H1475       H  0.67152171  0.37710571  0.56844367     0.18900
H1476       H  0.56945132  0.38413092  0.46778905     0.18900
C1477       C  0.86954773  0.36411027  0.50244653    -0.06900
C1478       C  0.89615176  0.36447649  0.47074279    -0.18000
C1479       C  0.92159491  0.38954769  0.47424422     0.10300
C1480       C  0.92034758  0.41437162  0.51052710    -0.06800
C1481       C  0.89360299  0.41420159  0.54188784    -0.18100
C1482       C  0.86839301  0.38897896  0.53868470     0.10300
S1483       S  0.95513588  0.38802340  0.43220920    -0.33000
S1484       S  0.83715592  0.38848108  0.58380377    -0.33000
H1485       H  0.83363072  0.35208335  0.58488903     0.28300
H1486       H  0.96371500  0.42349510  0.43486102     0.28300
H1487       H  0.89701246  0.34520280  0.44309716     0.18900
H1488       H  0.89320533  0.43301509  0.57012795     0.18900
C1489       C  0.64302086  0.24811911  0.34738733    -0.06900
C1490       C  0.61955163  0.22079806  0.34981209    -0.18000
C1491       C  0.58721969  0.22222581  0.32887569     0.10300
C1492       C  0.57747066  0.25179991  0.30306842    -0.06800
C1493       C  0.60153005  0.27923901  0.30063774    -0.18100
C1494       C  0.63368588  0.27779992  0.32226743     0.10300
S1495       S  0.55871522  0.18588264  0.33689052    -0.33000
S1496       S  0.66076764  0.31543494  0.31678684    -0.33000
H1497       H  0.68188896  0.31013058  0.35510635     0.28300
H1498       H  0.58354855  0.16183491  0.35101042     0.28300
H1499       H  0.62644123  0.19832404  0.36949847     0.18900
H1500       H  0.59585384  0.30285814  0.28291897     0.18900
C1501       C  0.88122086  0.25009359  0.35046725    -0.06900
C1502       C  0.90684212  0.27366791  0.36456216    -0.18000
C1503       C  0.93840359  0.27524836  0.34259473     0.10300
C1504       C  0.94591730  0.25183167  0.30594237    -0.06800
C1505       C  0.91955222  0.22969586  0.28979632    -0.18100
C1506       C  0.88764607  0.22825695  0.31182942     0.10300
S1507       S  0.96711385  0.30914947  0.36179721    -0.33000
S1508       S  0.85724716  0.19657027  0.29088919    -0.33000
H1509       H  0.84652465  0.18647577  0.33469713     0.28300
H1510       H  0.97970230  0.31608886  0.31776683     0.28300
H1511       H  0.90220834  0.29125352  0.39340267     0.18900
H1512       H  0.92417789  0.21231704  0.26088706     0.18900
C1513       C  0.75875196  0.36725434  0.34640649    -0.06900
C1514       C  0.76117740  0.40113605  0.36656808    -0.18000
C1515       C  0.75662905  0.43159392  0.34124052     0.10300
C1516       C  0.74946861  0.42927772  0.29384499    -0.06800
C1517       C  0.74877627  0.39585718  0.27279166    -0.18100
C1518       C  0.75407201  0.36518380  0.29798090     0.10300
S1519       S  0.75839148  0.47264429  0.37211859    -0.33000
S1520       S  0.75615797  0.32488271  0.26558061    -0.33000
H1521       H  0.73006512  0.30884369  0.28997386     0.28300
H1522       H  0.72957862  0.48661207  0.35019739     0.28300
H1523       H  0.76585376  0.40435456  0.40313899     0.18900
H1524       H  0.74402202  0.39360321  0.23610089     0.18900
C1525       C  0.75659929  0.12297814  0.35120065    -0.06900
C1526       C  0.78269139  0.11152319  0.32183635    -0.18000
C1527       C  0.77970938  0.07995330  0.29616185     0.10300
C1528       C  0.75021819  0.05901903  0.30048251    -0.06800
C1529       C  0.72466239  0.07053620  0.33067741    -0.18100
C1530       C  0.72734201  0.10200181  0.35533955     0.10300
S1531       S  0.81318722  0.06759674  0.25720524    -0.33000
S1532       S  0.69204737  0.11437634  0.39127135    -0.33000
H1533       H  0.69352293  0.14986847  0.38048139     0.28300
H1534       H  0.83107313  0.09928908  0.25959377     0.28300
H1535       H  0.80556185  0.12705921  0.31958708     0.18900
H1536       H  0.70169474  0.05523253  0.33407939     0.18900
O1537       O  0.75950508  0.68517925  0.36134668    -0.87300
O1538       O  0.75662541  0.69214050  0.62511458    -0.87400
O1539       O  0.81957617  0.65267171  0.49856651    -0.89100
O1540       O  0.70905447  0.64864308  0.49762525    -0.87900
O1541       O  0.66660839  0.68930272  0.49424956    -0.87500
O1542       O  0.85871530  0.69678352  0.49624519    -0.88800
O1543       O  0.75812914  0.65020621  0.56747666    -0.87300
O1544       O  0.76092678  0.64658069  0.42114027    -0.86900
Zr1545     Zr  0.76308035  0.67871345  0.49359230     2.84300
O1546       O  0.72837192  0.71374982  0.53972915    -1.08900
O1547       O  0.79562803  0.71300586  0.44464946    -1.09600
C1548       C  0.75888951  0.65377730  0.37805938     1.05800
C1549       C  0.75552418  0.66001688  0.61003335     1.05800
C1550       C  0.85024016  0.66466307  0.49963330     1.08800
C1551       C  0.67754263  0.65793999  0.49754919     1.06500
H1552       H  0.80984757  0.70177681  0.56109952     0.32100
O1553       O  0.79513234  0.71551530  0.54195174    -1.29800
H1554       H  0.71393286  0.69557252  0.42578644     0.31800
O1555       O  0.72835805  0.71100152  0.44399247    -1.31500
O1556       O  0.75784958  0.81154896  0.62305900    -0.87300
O1557       O  0.75998780  0.80596985  0.36061723    -0.88800
O1558       O  0.85683772  0.75276119  0.56532878    -0.87300
O1559       O  0.66310224  0.74408443  0.56282086    -0.87400
O1560       O  0.66406021  0.74474933  0.41689442    -0.87100
O1561       O  0.85756247  0.75064604  0.42153161    -0.86900
O1562       O  0.81004546  0.84823830  0.49983479    -0.87300
O1563       O  0.70089888  0.84263466  0.49713737    -0.86700
O1564       O  0.85254351  0.80740175  0.49700715    -0.87800
O1565       O  0.66172860  0.79858596  0.49544309    -0.87000
O1566       O  0.81882444  0.75234378  0.62489173    -0.87400
O1567       O  0.81967746  0.74689275  0.36104871    -0.87100
O1568       O  0.70311990  0.74700628  0.35846981    -0.86700
O1569       O  0.70151191  0.74993461  0.62263451    -0.87100
O1570       O  0.75530457  0.84927738  0.56322509    -0.87400
O1571       O  0.75600789  0.84587936  0.41971816    -0.88800
Zr1572     Zr  0.76011702  0.75058727  0.58963725     2.83100
Zr1573     Zr  0.76095144  0.74616015  0.39484604     2.83500
Zr1574     Zr  0.82686872  0.75035408  0.49300451     2.84100
Zr1575     Zr  0.69336480  0.74526997  0.49064385     2.83400
Zr1576     Zr  0.75708131  0.81661096  0.49190678     2.84200
O1577       O  0.72508832  0.78056017  0.44253637    -1.09400
O1578       O  0.79252271  0.78493226  0.54032872    -1.08900
C1579       C  0.75589088  0.84291858  0.60651122     1.05800
C1580       C  0.75776347  0.83791000  0.37665458     1.08400
C1581       C  0.84964418  0.75347800  0.60836075     1.06000
C1582       C  0.67071628  0.74678831  0.60593322     1.06300
C1583       C  0.67212754  0.74616726  0.37409029     1.05900
C1584       C  0.85046901  0.74903676  0.37825401     1.05500
C1585       C  0.84146853  0.83882786  0.50098827     1.05900
C1586       C  0.67031450  0.83071568  0.49910659     1.05400
H1587       H  0.80696106  0.79848358  0.42656711     0.32100
O1588       O  0.79279045  0.78331099  0.44430621    -1.30400
H1589       H  0.70983925  0.79628064  0.55815197     0.32100
O1590       O  0.72482029  0.78199069  0.53962921    -1.31800
N1591       N  0.96051365  0.00019749  0.53732531    -0.37400
N1592       N  0.50914857  0.94487323  0.54222457    -0.58000
N1593       N  0.56466217  0.99347934  0.55328185    -0.37400
N1594       N  0.51462055  0.55034927  0.53920455    -0.58000
C1595       C  0.94196488  0.97303848  0.52123315     0.26200
C1596       C  0.94461072  0.53111714  0.51512498     0.26200
C1597       C  0.57996199  0.96402274  0.53831898     0.26200
C1598       C  0.58229507  0.52287547  0.52740859     0.26200
C1599       C  0.98009380  0.92655699  0.54686200     0.34800
C1600       C  0.53409975  0.92307131  0.55504659     0.34800
C1601       C  0.98837879  0.57124722  0.54551860     0.34800
C1602       C  0.54240888  0.56867577  0.55142666     0.34800
C1603       C  0.91539007  0.98472751  0.49394581    -0.22700
C1604       C  0.91539316  0.52345963  0.48979348    -0.22700
C1605       C  0.60936204  0.97202377  0.51469019    -0.22700
C1606       C  0.61012859  0.51146267  0.50215995    -0.22700
C1607       C  0.98837029  0.89284477  0.55887855    -0.23700
C1608       C  0.52072147  0.89110672  0.56683666    -0.23700
C1609       C  0.00005461  0.60267019  0.56360419    -0.23700
C1610       C  0.53326898  0.60188183  0.56623431    -0.23700
C1611       C  0.94799040  0.93814165  0.53213600    -0.19100
C1612       C  0.95540139  0.56466048  0.52883879    -0.19100
C1613       C  0.57536974  0.55768820  0.53977032    -0.19100
C1614       C  0.56854500  0.93018326  0.54752112    -0.19100
H1615       H  0.89611872  0.96922946  0.47642402     0.13800
H1616       H  0.89728531  0.54163565  0.47548857     0.13800
H1617       H  0.62713951  0.95408789  0.49869437     0.13800
H1618       H  0.62949946  0.52714432  0.48635010     0.13800
H1619       H  0.97122819  0.87106173  0.56223800     0.12100
H1620       H  0.53459945  0.86807076  0.57692475     0.12100
H1621       H  0.98519027  0.62563560  0.57195597     0.12100
H1622       H  0.55009884  0.62308078  0.57563032     0.12100
H1623       H  0.97925042  0.99943363  0.56286044     0.25400
H1624       H  0.54402100  0.99490148  0.57555982     0.25400
O1625       O  0.98524453  0.93416240  0.86452949    -0.87300
O1626       O  0.98476900  0.94105424  0.12818045    -0.87400
O1627       O  0.53336339  0.89622626  0.99884096    -0.89100
O1628       O  0.92478504  0.90517680  0.99989660    -0.87900
O1629       O  0.88720807  0.95082115  0.00162708    -0.87500
O1630       O  0.57744761  0.93523179  0.99772706    -0.88800
O1631       O  0.98179416  0.90044386  0.06949068    -0.86500
O1632       O  0.98148286  0.89690386  0.92474027    -0.86900
Zr1633     Zr  0.98164813  0.92938651  0.99624964     2.84300
O1634       O  0.95093952  0.96693128  0.04386882    -1.08900
O1635       O  0.51748866  0.96067431  0.94693602    -1.09600
C1636       C  0.98327785  0.90278780  0.88154611     1.05800
C1637       C  0.98327333  0.90903991  0.11253859     1.05800
C1638       C  0.56508360  0.90435403  0.99986202     1.08800
C1639       C  0.89469873  0.91835373  0.00277092     1.06500
H1640       H  0.53100432  0.94663086  0.06229640     0.32100
O1641       O  0.51755188  0.96217978  0.04376043    -1.29800
H1642       H  0.93456673  0.95011437  0.92878810     0.31800
O1643       O  0.95014837  0.96439237  0.94664861    -1.31500
O1644       O  0.98999672  0.55737947  0.12805980    -0.87300
O1645       O  0.98640785  0.55616687  0.86394917    -0.88800
O1646       O  0.58339969  0.99143124  0.06795661    -0.87300
O1647       O  0.89094228  0.00638293  0.06701628    -0.87400
O1648       O  0.88926532  0.50370703  0.92055604    -0.87100
O1649       O  0.58291383  0.49303438  0.92072650    -0.86900
O1650       O  0.54853936  0.59009365  0.99629316    -0.87300
O1651       O  0.93996608  0.59874957  0.99733164    -0.86700
O1652       O  0.58632511  0.54467242  0.99883433    -0.87800
O1653       O  0.89553905  0.56015972  0.99442339    -0.87000
O1654       O  0.54523819  0.99568727  0.12736063    -0.87400
O1655       O  0.54405570  0.49534675  0.86122215    -0.87100
O1656       O  0.92725198  0.49911504  0.86112577    -0.86700
O1657       O  0.92896087  0.00237411  0.12712614    -0.87100
O1658       O  0.99385859  0.59551112  0.06835738    -0.87400
O1659       O  0.99243565  0.59510554  0.92402185    -0.88800
Zr1660     Zr  0.98706318  0.99985694  0.09284824     2.83100
Zr1661     Zr  0.98540701  0.49586910  0.89686292     2.83500
Zr1662     Zr  0.55333010  0.99296031  0.99567262     2.84100
Zr1663     Zr  0.92041100  0.00279841  0.99483938     2.83400
Zr1664     Zr  0.99119841  0.56465526  0.99556032     2.84200
O1665       O  0.95464292  0.53356158  0.94631102    -1.09400
O1666       O  0.52314238  0.52957970  0.04224193    -1.08900
C1667       C  0.99282131  0.58859819  0.11146018     1.05800
C1668       C  0.98907050  0.58786234  0.88094437     1.08400
C1669       C  0.57599612  0.99284302  0.11094280     1.06000
C1670       C  0.89828737  0.00530335  0.11015740     1.06300
C1671       C  0.89646988  0.50188127  0.87734051     1.05900
C1672       C  0.57503491  0.49461404  0.87770256     1.05500
C1673       C  0.57869097  0.57718566  0.99893721     1.05900
C1674       C  0.90823541  0.59100716  0.99651498     1.05400
H1675       H  0.53791277  0.54310576  0.92745771     0.32100
O1676       O  0.52264464  0.52914754  0.94525254    -1.30400
H1677       H  0.94160645  0.54993425  0.06177782     0.32100
O1678       O  0.95497283  0.53400965  0.04323480    -1.31800
N1679       N  0.78830673  0.75338483  0.03148594    -0.37400
N1680       N  0.73167582  0.80203645  0.03694807    -0.58000
N1681       N  0.68563353  0.74335565  0.02502336    -0.37400
N1682       N  0.74212017  0.69484525  0.02622099    -0.58000
C1683       C  0.80525070  0.78332987  0.03999807     0.26200
C1684       C  0.81094594  0.72713326  0.03533328     0.26200
C1685       C  0.66321042  0.76907232  0.03419889     0.26200
C1686       C  0.66865840  0.71307746  0.02827990     0.26200
C1687       C  0.75708329  0.82497687  0.03067101     0.34800
C1688       C  0.70253115  0.81944999  0.02857315     0.34800
C1689       C  0.77144984  0.67720272  0.02042445     0.34800
C1690       C  0.71696721  0.67204264  0.01648381     0.34800
C1691       C  0.83914258  0.77610347  0.04951561    -0.22700
C1692       C  0.84281078  0.74065220  0.04618651    -0.22700
C1693       C  0.63151731  0.75505889  0.04326427    -0.22700
C1694       C  0.63495318  0.71959161  0.03948839    -0.22700
C1695       C  0.74400571  0.85739707  0.01997335    -0.23700
C1696       C  0.70933992  0.85391122  0.01876121    -0.23700
C1697       C  0.76479377  0.64260658  0.00896660    -0.23700
C1698       C  0.73021108  0.63943831  0.00605595    -0.23700
C1699       C  0.79198286  0.81708950  0.03415800    -0.19100
C1700       C  0.80423218  0.69166792  0.02564730    -0.19100
C1701       C  0.68210021  0.67988870  0.01813686    -0.19100
C1702       C  0.66976807  0.80481101  0.03010081    -0.19100
H1703       H  0.85940160  0.79455980  0.05654100     0.13800
H1704       H  0.86653344  0.72667372  0.05014606     0.13800
H1705       H  0.60818649  0.76898008  0.05078392     0.13800
H1706       H  0.61477580  0.70078287  0.04364558     0.13800
H1707       H  0.75797116  0.88097029  0.01308018     0.12100
H1708       H  0.69126658  0.87426694  0.01079997     0.12100
H1709       H  0.78286484  0.62176190  0.00300047     0.12100
H1710       H  0.71642809  0.61582901  0.99728284     0.12100
H1711       H  0.76420311  0.75146471  0.01724953     0.25400
H1712       H  0.70943671  0.74644897  0.01067246     0.25400
C1713       C  0.54191906  0.75182639  0.27234189     0.85700
C1714       C  0.53872716  0.72112359  0.23862924    -0.54500
C1715       C  0.00945891  0.71863033  0.21592572     0.08600
C1716       C  0.98466880  0.74917846  0.22800794     0.19600
C1717       C  0.53487650  0.78359492  0.24205417    -0.55300
C1718       C  0.00508497  0.78333691  0.21997998     0.08700
C1719       C  0.01161373  0.74924735  0.30372948    -0.54800
C1720       C  0.98074737  0.74844656  0.28070051     0.09300
H1721       H  0.55870548  0.70175158  0.23466051     0.13800
H1722       H  0.95982630  0.74777061  0.20981595    -0.00400
H1723       H  0.55212636  0.80511150  0.23817710     0.14100
H1724       H  0.01352642  0.74901498  0.34097248     0.13900
C1725       C  0.70673705  0.99644700  0.21251046     0.85700
C1726       C  0.71122573  0.96475305  0.24304785    -0.54500
C1727       C  0.74099125  0.96355186  0.26718973     0.08600
C1728       C  0.76424640  0.99565172  0.25955354     0.19600
C1729       C  0.71110607  0.52522192  0.24435333    -0.55300
C1730       C  0.74086337  0.52571439  0.26881624     0.08700
C1731       C  0.73919446  0.99696677  0.18249283    -0.54800
C1732       C  0.76945292  0.99597404  0.20686989     0.09300
H1733       H  0.69239709  0.94411804  0.24454640     0.13800
H1734       H  0.78826498  0.99534470  0.27985680    -0.00400
H1735       H  0.69401905  0.54736267  0.24590656     0.14100
H1736       H  0.73830110  0.99850922  0.14527368     0.13900
C1737       C  0.54377699  0.74625452  0.71578190     0.85700
C1738       C  0.53847006  0.77725353  0.74950166    -0.54500
C1739       C  0.00654780  0.77617592  0.76868225     0.08600
C1740       C  0.98494735  0.74283527  0.75928895     0.19600
C1741       C  0.53951323  0.71409328  0.74584601    -0.55300
C1742       C  0.00830371  0.71054154  0.76702018     0.08700
C1743       C  0.00969847  0.74396525  0.68283626    -0.54800
C1744       C  0.97941159  0.74281396  0.70676584     0.09300
H1745       H  0.55570994  0.79880756  0.75428183     0.13800
H1746       H  0.96100067  0.74276728  0.77917623    -0.00400
H1747       H  0.55838453  0.69344462  0.74726053     0.14100
H1748       H  0.01046254  0.74543960  0.64563076     0.13900
C1749       C  0.70327988  0.99931622  0.77572690     0.85700
C1750       C  0.70566969  0.53097126  0.74266430    -0.54500
C1751       C  0.73505596  0.53439781  0.71805522     0.08600
C1752       C  0.76051163  0.00329923  0.72961337     0.19600
C1753       C  0.70969890  0.96865468  0.74205090    -0.55300
C1754       C  0.73921873  0.97019435  0.71832586     0.08700
C1755       C  0.73591001  0.99975595  0.80624443    -0.54800
C1756       C  0.76595588  0.00211379  0.78225277     0.09300
H1757       H  0.68581386  0.55060817  0.74340775     0.13800
H1758       H  0.78440936  0.00400320  0.70971965    -0.00400
H1759       H  0.69409234  0.94564421  0.73849502     0.14100
H1760       H  0.73525945  0.99832076  0.84346792     0.13900
C1761       C  0.60645901  0.99131848  0.14194680    -0.06900
C1762       C  0.63289962  0.96812920  0.12994569    -0.18000
C1763       C  0.66502054  0.96916140  0.15189502     0.10300
C1764       C  0.67188094  0.99474734  0.18671418    -0.06800
C1765       C  0.64296039  0.51125556  0.20200187    -0.18100
C1766       C  0.61112328  0.51076360  0.17944068     0.10300
S1767       S  0.69646964  0.93684420  0.13538221    -0.33000
S1768       S  0.57806120  0.53830235  0.20280026    -0.33000
H1769       H  0.56679824  0.55094693  0.16030607     0.28300
H1770       H  0.67771950  0.92067332  0.09956915     0.28300
H1771       H  0.62837888  0.94926312  0.10246032     0.18900
H1772       H  0.64464494  0.52655881  0.23336624     0.18900
C1773       C  0.86800470  0.00708493  0.14081921    -0.06900
C1774       C  0.86378595  0.98222434  0.17512145    -0.18000
C1775       C  0.83208407  0.97754331  0.19655346     0.10300
C1776       C  0.80375573  0.99858433  0.18449969    -0.06800
C1777       C  0.80883300  0.52175012  0.15186177    -0.18100
C1778       C  0.84044804  0.52590190  0.13085754     0.10300
S1779       S  0.82848840  0.94174431  0.23510086    -0.33000
S1780       S  0.84414432  0.56133779  0.09148054    -0.33000
H1781       H  0.87916053  0.56648458  0.09915226     0.28300
H1782       H  0.79785478  0.93014436  0.21486540     0.28300
H1783       H  0.88454516  0.96463163  0.18291586     0.18900
H1784       H  0.78845074  0.53970506  0.14369424     0.18900
C1785       C  0.98387579  0.87868709  0.14472757    -0.06900
C1786       C  0.97111042  0.84631514  0.12830081    -0.18000
C1787       C  0.97612622  0.81510747  0.15206076     0.10300
C1788       C  0.99332497  0.81561904  0.19502927    -0.06800
C1789       C  0.50223551  0.84855812  0.21230669    -0.18100
C1790       C  0.49886671  0.87935226  0.18729715     0.10300
S1791       S  0.96158645  0.77584041  0.12351283    -0.33000
S1792       S  0.51845854  0.91790019  0.21169837    -0.33000
H1793       H  0.53764477  0.92453434  0.17212733     0.28300
H1794       H  0.99095049  0.75668157  0.13358411     0.28300
H1795       H  0.95842425  0.84482341  0.09510004     0.18900
H1796       H  0.51418897  0.85034581  0.24595406     0.18900
C1797       C  0.00239138  0.68719629  0.18606901    -0.06900
C1798       C  0.97725064  0.66327841  0.19916421    -0.18000
C1799       C  0.97369442  0.63033042  0.17713782     0.10300
C1800       C  0.99659310  0.62023165  0.14193308    -0.06800
C1801       C  0.52460674  0.64252350  0.13243328    -0.18100
C1802       C  0.52747157  0.67570343  0.15274975     0.10300
S1803       S  0.93925078  0.60298665  0.19522174    -0.33000
S1804       S  0.56358848  0.70144918  0.13575170    -0.33000
H1805       H  0.54927746  0.73416697  0.14592650     0.28300
H1806       H  0.93290601  0.58733485  0.15197174     0.28300
H1807       H  0.96075473  0.66987375  0.22754949     0.18900
H1808       H  0.54400171  0.63399728  0.10838761     0.18900
C1809       C  0.64044257  0.82802450  0.02403461    -0.06900
C1810       C  0.62691021  0.83117242  0.97953520    -0.18000
C1811       C  0.60134432  0.85531548  0.97034615     0.10300
C1812       C  0.58932737  0.87650959  0.00677332    -0.06800
C1813       C  0.60213482  0.87261932  0.05148960    -0.18100
C1814       C  0.62744229  0.84830713  0.06066718     0.10300
S1815       S  0.58652961  0.85832220  0.91145430    -0.33000
S1816       S  0.64273695  0.84531101  0.11917857    -0.33000
H1817       H  0.65483189  0.81093753  0.11613897     0.28300
H1818       H  0.56333534  0.88587593  0.91650565     0.28300
H1819       H  0.63709499  0.81536402  0.95160506     0.18900
H1820       H  0.59259585  0.88898515  0.07932579     0.18900
C1821       C  0.81668424  0.84507014  0.02636313    -0.06900
C1822       C  0.83293673  0.84524811  0.98362323    -0.18000
C1823       C  0.85753565  0.87004680  0.97420868     0.10300
C1824       C  0.86654646  0.89451270  0.00867353    -0.06800
C1825       C  0.84927568  0.89546361  0.05066954    -0.18100
C1826       C  0.82445034  0.87075387  0.06004836     0.10300
S1827       S  0.87586440  0.86977819  0.91750717    -0.33000
S1828       S  0.80403123  0.87302213  0.11535627    -0.33000
H1829       H  0.79993252  0.83690896  0.11989658     0.28300
H1830       H  0.88249935  0.90570769  0.91627242     0.28300
H1831       H  0.82629183  0.82590583  0.95747473     0.18900
H1832       H  0.85601402  0.91479919  0.07680891     0.18900
C1833       C  0.88456046  0.61960912  0.00132999    -0.06900
C1834       C  0.87994385  0.63320162  0.04579317    -0.18000
C1835       C  0.85347718  0.65618909  0.05519681     0.10300
C1836       C  0.83333366  0.66817936  0.01841914    -0.06800
C1837       C  0.83972182  0.65650490  0.97329548    -0.18100
C1838       C  0.86457152  0.63148350  0.96440352     0.10300
S1839       S  0.84611712  0.66796493  0.11469426    -0.33000
S1840       S  0.86865614  0.61578896  0.90571212    -0.33000
H1841       H  0.89706225  0.59403129  0.91110365     0.28300
H1842       H  0.81108205  0.67457685  0.11041673     0.28300
H1843       H  0.89566542  0.62403419  0.07391414     0.18900
H1844       H  0.82410586  0.66584632  0.94517916     0.18900
C1845       C  0.60658962  0.60167779  0.00319823    -0.06900
C1846       C  0.61326813  0.62323949  0.96610959    -0.18000
C1847       C  0.63917701  0.64786149  0.96907934     0.10300
C1848       C  0.65790249  0.65135588  0.01047996    -0.06800
C1849       C  0.65185201  0.62912444  0.04701110    -0.18100
C1850       C  0.62629938  0.60425468  0.04379841     0.10300
S1851       S  0.64658890  0.67438996  0.91956748    -0.33000
S1852       S  0.61915764  0.57775610  0.09322610    -0.33000
H1853       H  0.58357832  0.57652851  0.08812939     0.28300
H1854       H  0.68093809  0.68183449  0.92918548     0.28300
H1855       H  0.59829092  0.62076489  0.93474134     0.18900
H1856       H  0.66636068  0.63206018  0.07871249     0.18900
C1857       C  0.86589441  0.50393606  0.84587955    -0.06900
C1858       C  0.84003473  0.52751519  0.85882289    -0.18000
C1859       C  0.80865017  0.52908211  0.83564868     0.10300
C1860       C  0.80059208  0.00368608  0.80461276    -0.06800
C1861       C  0.82575806  0.97935260  0.79146349    -0.18100
C1862       C  0.85789726  0.97822299  0.81366295     0.10300
S1863       S  0.78027306  0.56390767  0.85219804    -0.33000
S1864       S  0.88626325  0.94320478  0.79773162    -0.33000
H1865       H  0.89993412  0.93821148  0.84193212     0.28300
H1866       H  0.76630315  0.56845228  0.80801877     0.28300
H1867       H  0.84435579  0.54523958  0.88762704     0.18900
H1868       H  0.81976171  0.95999115  0.76508195     0.18900
C1869       C  0.66865962  0.99870710  0.80185117    -0.06900
C1870       C  0.64321160  0.97329236  0.79154704    -0.18000
C1871       C  0.61210313  0.97198337  0.81504940     0.10300
C1872       C  0.60497274  0.49703848  0.84658544    -0.06800
C1873       C  0.63027339  0.52157815  0.85817617    -0.18100
C1874       C  0.66142112  0.52310159  0.83465636     0.10300
S1875       S  0.58349140  0.93649560  0.80114402    -0.33000
S1876       S  0.69042911  0.55810267  0.84946388    -0.33000
H1877       H  0.67253492  0.57184874  0.88736176     0.28300
H1878       H  0.57124679  0.93209240  0.84594956     0.28300
H1879       H  0.64651718  0.95376932  0.76509238     0.18900
H1880       H  0.62540180  0.53988247  0.88612232     0.18900
C1881       C  0.98908567  0.61910992  0.84996541    -0.06900
C1882       C  0.49688104  0.61664090  0.80278455    -0.18000
C1883       C  0.50140041  0.64595893  0.77500549     0.10300
C1884       C  0.99865352  0.67862059  0.79324194    -0.06800
C1885       C  0.98834402  0.68263987  0.83882780    -0.18100
C1886       C  0.98297167  0.65381515  0.86691008     0.10300
S1887       S  0.50797283  0.63747812  0.71471854    -0.33000
S1888       S  0.96764249  0.66407101  0.92383864    -0.33000
H1889       H  0.94281115  0.63784534  0.92210827     0.28300
H1890       H  0.49196736  0.66808762  0.69988889     0.28300
H1891       H  0.50060943  0.59086991  0.78790277     0.18900
H1892       H  0.98497019  0.70867038  0.85309633     0.18900
C1893       C  0.98427238  0.87020867  0.85077289    -0.06900
C1894       C  0.99437733  0.87265158  0.80469206    -0.18000
C1895       C  0.99883144  0.84284004  0.77624987     0.10300
C1896       C  0.99506419  0.80879195  0.79421905    -0.06800
C1897       C  0.48010936  0.80946867  0.83812467    -0.18100
C1898       C  0.47258830  0.83982028  0.86431921     0.10300
S1899       S  0.00790484  0.85036074  0.71655049    -0.33000
S1900       S  0.44852538  0.83474368  0.91665902    -0.33000
H1901       H  0.44240866  0.79877559  0.91217061     0.28300
H1902       H  0.99081495  0.82051027  0.70012813     0.28300
H1903       H  0.99901214  0.89806506  0.79048867     0.18900
H1904       H  0.47423224  0.78408970  0.85152096     0.18900
C1905       C  0.94475443  0.74581333  0.68438046    -0.06900
C1906       C  0.94044147  0.77044678  0.64987349    -0.18000
C1907       C  0.90902076  0.77531652  0.62756649     0.10300
C1908       C  0.88039938  0.75482281  0.63923112    -0.06800
C1909       C  0.88418954  0.73086765  0.67481780    -0.18100
C1910       C  0.91590029  0.72604517  0.69737483     0.10300
S1911       S  0.90602457  0.80826104  0.58412345    -0.33000
S1912       S  0.91952189  0.69201983  0.73910852    -0.33000
H1913       H  0.88439107  0.68714256  0.74535458     0.28300
H1914       H  0.94019624  0.81897362  0.58550201     0.28300
H1915       H  0.96196622  0.78619618  0.64036339     0.18900
H1916       H  0.86285942  0.71431745  0.68289643     0.18900
C1917       C  0.57805793  0.74603662  0.68833302    -0.06900
C1918       C  0.60345738  0.77210245  0.69524035    -0.18000
C1919       C  0.63374400  0.77286089  0.66962190     0.10300
C1920       C  0.64084051  0.74610830  0.63741433    -0.06800
C1921       C  0.61648195  0.71977551  0.63078619    -0.18100
C1922       C  0.58572579  0.71932294  0.65542763     0.10300
S1923       S  0.66105762  0.81030206  0.67694101    -0.33000
S1924       S  0.55642823  0.68450284  0.64234024    -0.33000
H1925       H  0.58126281  0.66070485  0.62684905     0.28300
H1926       H  0.66811583  0.81367315  0.62985922     0.28300
H1927       H  0.60041515  0.79310121  0.71966481     0.18900
H1928       H  0.62125194  0.69966324  0.60502138     0.18900
C1929       C  0.74993149  0.63144279  0.64319978    -0.06900
C1930       C  0.77796877  0.61384235  0.66171672    -0.18000
C1931       C  0.77432440  0.58294135  0.68685223     0.10300
C1932       C  0.74170226  0.56732144  0.69105934    -0.06800
C1933       C  0.71357912  0.58580879  0.67279742    -0.18100
C1934       C  0.71719571  0.61806287  0.65128400     0.10300
S1935       S  0.81145605  0.56622113  0.71599228    -0.33000
S1936       S  0.67885490  0.64154661  0.63675394    -0.33000
H1937       H  0.69340512  0.67485462  0.63591317     0.28300
H1938       H  0.83428434  0.59268747  0.70415259     0.28300
H1939       H  0.80286181  0.62489654  0.65727140     0.18900
H1940       H  0.68810726  0.57557945  0.67589105     0.18900
C1941       C  0.75390562  0.87525957  0.63733982    -0.06900
C1942       C  0.74728000  0.90771869  0.61620510    -0.18000
C1943       C  0.74499141  0.93927253  0.64143554     0.10300
C1944       C  0.74968426  0.93943829  0.68929922    -0.06800
C1945       C  0.75701931  0.90765991  0.71075976    -0.18100
C1946       C  0.75914744  0.87590138  0.68569310     0.10300
S1947       S  0.73433746  0.97916306  0.61260270    -0.33000
S1948       S  0.76858390  0.83746985  0.71780169    -0.33000
H1949       H  0.73838647  0.82053429  0.70396367     0.28300
H1950       H  0.72440451  0.96363242  0.57042646     0.28300
H1951       H  0.74334069  0.90866762  0.57940777     0.18900
H1952       H  0.75977836  0.90740588  0.74786332     0.18900
C1953       C  0.87791540  0.64008592  0.50763948    -0.06900
C1954       C  0.90137356  0.63334669  0.47261871    -0.18000
C1955       C  0.92850484  0.61048514  0.47970250     0.10300
C1956       C  0.93176351  0.59385970  0.52241604    -0.06800
C1957       C  0.90943102  0.60209414  0.55812208    -0.18100
C1958       C  0.88275980  0.62533489  0.55120265     0.10300
S1959       S  0.95707310  0.60222782  0.43252253    -0.33000
S1960       S  0.85682478  0.63692590  0.59963390    -0.33000
H1961       H  0.82636760  0.62719158  0.57731905     0.28300
H1962       H  0.98628466  0.59689990  0.45962774     0.28300
H1963       H  0.89838375  0.64574116  0.43963775     0.18900
H1964       H  0.91234984  0.58971727  0.59113302     0.18900
C1965       C  0.60168212  0.58402794  0.53131800    -0.06900
C1966       C  0.59437499  0.60925305  0.49853080    -0.18000
C1967       C  0.61898041  0.63273837  0.48515369     0.10300
C1968       C  0.65199891  0.63085851  0.50445313    -0.06800
C1969       C  0.65980286  0.60444058  0.53543575    -0.18100
C1970       C  0.63480142  0.58170492  0.55019816     0.10300
S1971       S  0.60691546  0.66298990  0.44156679    -0.33000
S1972       S  0.64680971  0.55035489  0.59287552    -0.33000
H1973       H  0.61451739  0.54840535  0.61309682     0.28300
H1974       H  0.63915439  0.66265695  0.42123249     0.28300
H1975       H  0.56944834  0.61006608  0.48229842     0.18900
H1976       H  0.68516661  0.60253039  0.55007536     0.18900
C1977       C  0.64339198  0.85530882  0.51078593    -0.06900
C1978       C  0.64903254  0.87741533  0.54899769    -0.18000
C1979       C  0.62362806  0.89971326  0.56481594     0.10300
C1980       C  0.59248728  0.90111185  0.54050384    -0.06800
C1981       C  0.58628831  0.87790800  0.50357475    -0.18100
C1982       C  0.61124366  0.85459963  0.48886235     0.10300
S1983       S  0.63266905  0.92611432  0.61547315    -0.33000
S1984       S  0.60078167  0.82561659  0.44126810    -0.33000
H1985       H  0.63350045  0.82528180  0.42209136     0.28300
H1986       H  0.59860273  0.93216593  0.62772930     0.28300
H1987       H  0.67313247  0.87663947  0.56741631     0.18900
H1988       H  0.56237596  0.87903587  0.48480489     0.18900
C1989       C  0.86716823  0.86575681  0.50829348    -0.06900
C1990       C  0.89388975  0.86742167  0.47689508    -0.18000
C1991       C  0.92037944  0.89106089  0.48354815     0.10300
C1992       C  0.92056821  0.91283540  0.52310758    -0.06800
C1993       C  0.89361514  0.91158730  0.55420750    -0.18100
C1994       C  0.86706869  0.88796084  0.54752036     0.10300
S1995       S  0.95304316  0.89220631  0.44043035    -0.33000
S1996       S  0.83535755  0.88576278  0.59175373    -0.33000
H1997       H  0.83227226  0.84927940  0.59009809     0.28300
H1998       H  0.95970722  0.92804902  0.44463036     0.28300
H1999       H  0.89399781  0.85027522  0.44686651     0.18900
H2000       H  0.89376861  0.92853614  0.58442588     0.18900
C2001       C  0.64236821  0.74701418  0.34197348    -0.06900
C2002       C  0.61951642  0.71903954  0.34283206    -0.18000
C2003       C  0.58681213  0.72071510  0.32290174     0.10300
C2004       C  0.57649813  0.75084560  0.29868429    -0.06800
C2005       C  0.60007149  0.77872745  0.29732598    -0.18100
C2006       C  0.63227632  0.77724710  0.31864781     0.10300
S2007       S  0.55837922  0.68421168  0.33042090    -0.33000
S2008       S  0.65860759  0.81552991  0.31517787    -0.33000
H2009       H  0.67767602  0.81080584  0.35557909     0.28300
H2010       H  0.58344463  0.65980055  0.34251359     0.28300
H2011       H  0.62714937  0.69592530  0.36052910     0.18900
H2012       H  0.59390512  0.80279923  0.28099920     0.18900
C2013       C  0.88128953  0.75052264  0.34807580    -0.06900
C2014       C  0.90710557  0.77434544  0.36086105    -0.18000
C2015       C  0.93889256  0.77477725  0.33909110     0.10300
C2016       C  0.94639926  0.75009285  0.30384624    -0.06800
C2017       C  0.92008274  0.72721246  0.28954520    -0.18100
C2018       C  0.88806740  0.72679582  0.31150439     0.10300
S2019       S  0.96800658  0.80881769  0.35668560    -0.33000
S2020       S  0.85780584  0.69412507  0.29303810    -0.33000
H2021       H  0.84649954  0.68639680  0.33746711     0.28300
H2022       H  0.98027420  0.81471411  0.31221885     0.28300
H2023       H  0.90243925  0.79306821  0.38844986     0.18900
H2024       H  0.92473818  0.70867219  0.26195122     0.18900
C2025       C  0.75692341  0.86918813  0.34557515    -0.06900
C2026       C  0.75907576  0.90278162  0.36679172    -0.18000
C2027       C  0.75520217  0.93362184  0.34217365     0.10300
C2028       C  0.74965152  0.93197580  0.29444280    -0.06800
C2029       C  0.74912246  0.89893035  0.27246075    -0.18100
C2030       C  0.75295420  0.86782594  0.29703824     0.10300
S2031       S  0.75529632  0.97424989  0.37414694    -0.33000
S2032       S  0.75308013  0.82785788  0.26377867    -0.33000
H2033       H  0.72755900  0.81203075  0.28942651     0.28300
H2034       H  0.72649157  0.98771446  0.35156308     0.28300
H2035       H  0.76283092  0.90549166  0.40360728     0.18900
H2036       H  0.74506944  0.89731249  0.23557471     0.18900
C2037       C  0.75361004  0.62256662  0.34716488    -0.06900
C2038       C  0.77794089  0.61291265  0.31415872    -0.18000
C2039       C  0.77576934  0.58066938  0.28976130     0.10300
C2040       C  0.74908674  0.55699338  0.29893525    -0.06800
C2041       C  0.72505910  0.56681245  0.33216296    -0.18100
C2042       C  0.72672774  0.59898756  0.35555758     0.10300
S2043       S  0.80684704  0.57078185  0.24644901    -0.33000
S2044       S  0.69265915  0.60897397  0.39466743    -0.33000
H2045       H  0.69226877  0.64474820  0.38543507     0.28300
H2046       H  0.81804514  0.60521268  0.24083715     0.28300
H2047       H  0.79906421  0.63027536  0.30819331     0.18900
H2048       H  0.70380495  0.54968065  0.33869250     0.18900
loop_ 
_geom_bond_atom_site_label_1 
_geom_bond_atom_site_label_2 
_geom_bond_distance 
_geom_bond_site_symmetry_2 
_ccdc_geom_bond_type 
O1          Zr37   2.508       .  S
O1           C12   1.306       .  A
O2          Zr36   2.488       .  S
O2           C13   1.302       .  A
O3           Zr9   2.446       .  S
O3           C14   1.292       .  A
O4           Zr9   2.430       .  S
O4           C15   1.290       .  A
O5          Zr39   2.410       .  S
O5           C15   1.285       .  A
O6          Zr38   2.413       .  S
O6           C14   1.285       .  A
O7           Zr9   2.441       .  S
O7           C13   1.292       .  A
O8           Zr9   2.424       .  S
O8           C12   1.290       .  A
Zr9          O10   2.332       .  S
Zr9          O11   2.348       .  S
Zr9          O19   2.354       .  S
Zr9          O17   2.335       .  S
O10         Zr36   2.354       .  S
O10         Zr39   2.326       .  S
O11         Zr37   2.377       .  S
O11         Zr38   2.334       .  S
C12         C501   1.492       .  S
C13         C393   1.491       .  S
C14         C417   1.462       .  S
C15         C432   1.472       .  S
H16          O17   0.962       .  S
O17         Zr36   2.362       .  S
O17         Zr38   2.338       .  S
H18          O19   0.969       .  S
O19         Zr37   2.371       .  S
O19         Zr39   2.329       .  S
O20         Zr36   2.511       .  S
O20          C43   1.306       .  A
O21         Zr37   2.529       .  S
O21          C44   1.309       .  A
O22         Zr38   2.416       .  S
O22          C45   1.288       .  A
O23         Zr39   2.415       .  S
O23          C46   1.288       .  A
O24         Zr39   2.421       .  S
O24          C47   1.289       .  A
O25         Zr38   2.419       .  S
O25          C48   1.289       .  A
O26         Zr40   2.419       .  S
O26          C49   1.287       .  A
O27         Zr40   2.424       .  S
O27          C50   1.288       .  A
O28         Zr38   2.410       .  S
O28          C49   1.286       .  A
O29         Zr39   2.404       .  S
O29          C50   1.284       .  A
O30         Zr36   2.498       .  S
O30          C45   1.304       .  A
O31         Zr37   2.496       .  S
O31          C48   1.304       .  A
O32         Zr37   2.498       .  S
O32          C47   1.304       .  A
O33         Zr36   2.505       .  S
O33          C46   1.305       .  A
O34         Zr40   2.399       .  S
O34          C43   1.286       .  A
O35         Zr40   2.411       .  S
O35          C44   1.288       .  A
Zr36         O42   2.354       .  S
Zr36         O54   2.347       .  S
Zr37         O41   2.360       .  S
Zr37         O52   2.358       .  S
Zr38         O42   2.332       .  S
Zr38         O52   2.336       .  S
Zr39         O41   2.336       .  S
Zr39         O54   2.335       .  S
Zr40         O41   2.334       .  S
Zr40         O42   2.331       .  S
Zr40         O54   2.334       .  S
Zr40         O52   2.335       .  S
C43         C405   1.504       .  S
C44         C489   1.525       .  S
C45         C372   1.490       .  S
C46         C384   1.499       .  S
C47         C465   1.491       .  S
C48         C477   1.497       .  S
C49         C453   1.455       .  S
C50         C441   1.455       .  S
H51          O52   0.965       .  S
H53          O54   0.965       .  S
N55          H87   1.042       .  S
N55          C59   1.346       .  A
N55         C572   1.346       .  A
N56          C64   1.343       .  A
N56        C1087   1.341   1_455  A
N57          H88   1.044       .  S
N57          C61   1.344       .  A
N57         C574   1.346       .  A
N58          C66   1.343       .  A
N58        C1089   1.339   1_455  A
C59          C67   1.386       .  A
C59          C75   1.401       .  A
C60         N567   1.348       .  A
C60          C76   1.409       .  A
C60          C68   1.389       .  A
C61          C69   1.386       .  A
C61          C78   1.400       .  A
C62         N569   1.349   1_545  A
C62          C77   1.403       .  A
C62          C70   1.386       .  A
C63        N1080   1.343       .  A
C63          C75   1.401       .  A
C63          C71   1.387       .  A
C64          C78   1.398       .  A
C64          C72   1.385       .  A
C65        N1082   1.345       .  A
C65          C73   1.386       .  A
C65          C76   1.405       .  A
C66          C74   1.384       .  A
C66          C77   1.401       .  A
C67         C580   1.374       .  A
C67          H79   1.082       .  S
C68         C579   1.373   1_545  A
C68          H80   1.082       .  S
C69         C582   1.375       .  A
C69          H81   1.082       .  S
C70         C581   1.372   1_545  A
C70          H82   1.082       .  S
C71        C1096   1.375       .  A
C71          H83   1.082       .  S
C72        C1095   1.375   1_455  A
C72          H84   1.082       .  S
C73        C1098   1.376       .  A
C73          H85   1.082       .  S
C74        C1097   1.376   1_455  A
C74          H86   1.079       .  S
C75         C456   1.465       .  S
C76         C420   1.472       .  S
C77         C429   1.477       .  S
C78         C444   1.466       .  S
O89        Zr637   2.517       .  S
O89         C100   1.309       .  A
O90        Zr124   2.497       .  S
O90         C101   1.304       .  A
O91       Zr1121   2.427   1_455  S
O91         C102   1.288       .  A
O92         Zr97   2.432       .  S
O92         C103   1.289       .  A
O93        Zr127   2.392       .  S
O93         C103   1.281       .  A
O94        Zr126   2.401       .  S
O94         C102   1.284       .  A
O95         Zr97   2.433   1_554  S
O95         C101   1.292       .  A
O96         Zr97   2.395       .  S
O96         C100   1.282       .  A
Zr97       O1115   2.423       .  S
Zr97         O98   2.332   1_556  S
Zr97        O107   2.333       .  S
Zr97       O1123   2.346       .  S
Zr97       O1129   2.327   1_556  S
O98        Zr124   2.365       .  S
O98        Zr127   2.340   1_554  S
O99        Zr126   2.327       .  S
O99       Zr1121   2.342   1_455  S
O99       Zr1661   2.364   1_455  S
C100        C357   1.505       .  S
C101        C249   1.513       .  S
C102        C276   1.454       .  S
C103        C288   1.445       .  S
H104        O105   0.966       .  S
O105       Zr126   2.332   1_554  S
O105      Zr1121   2.334   1_454  S
O105      Zr1148   2.364   1_455  S
H106        O107   0.963       .  S
O107       Zr127   2.326       .  S
O107       Zr637   2.354       .  S
O108       Zr636   2.509   1_545  S
O108        C131   1.305       .  A
O109       Zr125   2.538   1_545  S
O109        C132   1.313       .  A
O110       Zr126   2.402   1_554  S
O110        C133   1.286       .  A
O111       Zr127   2.421   1_554  S
O111        C134   1.289       .  A
O112       Zr639   2.415       .  S
O112        C135   1.288       .  A
O113       Zr638   2.411       .  S
O113        C136   1.287       .  A
O114      Zr1152   2.430   1_455  S
O114        C137   1.289       .  A
O115       Zr128   2.398       .  S
O115        C138   1.282       .  A
O116       Zr638   2.410   1_545  S
O116        C137   1.284       .  A
O117       Zr639   2.403       .  S
O117        C138   1.283       .  A
O118      Zr1148   2.515   1_455  S
O118        C133   1.307       .  A
O119      Zr1149   2.501   1_455  S
O119        C136   1.305       .  A
O120       Zr125   2.507   1_545  S
O120        C135   1.306       .  A
O121       Zr124   2.495       .  S
O121        C134   1.303       .  A
O122       Zr128   2.409   1_554  S
O122        C131   1.287       .  A
O123       Zr128   2.397       .  S
O123        C132   1.282       .  A
Zr124       O620   2.506       .  S
Zr124      O1142   2.501       .  S
Zr124      O1129   2.357       .  S
Zr124      O1666   2.359       .  S
Zr124       O654   2.361       .  S
Zr125       O601   2.530       .  S
Zr125      O1143   2.493       .  S
Zr125       O129   2.351   1_565  S
Zr125      O1635   2.370       .  S
Zr125       O619   2.363       .  S
Zr125      O1164   2.362   1_565  S
Zr126       O625   2.411       .  S
Zr126       O628   2.395       .  S
Zr126       O642   2.332   1_556  S
Zr126       O652   2.330       .  S
Zr127       O624   2.424       .  S
Zr127       O629   2.405       .  S
Zr127       O641   2.328       .  S
Zr127       O654   2.333   1_556  S
Zr128      O1138   2.418       .  S
Zr128       O129   2.334       .  S
Zr128       O142   2.333   1_556  S
Zr128      O1154   2.326   1_556  S
Zr128      O1164   2.329       .  S
O129       Zr639   2.322       .  S
O130      Zr1660   2.362   1_445  S
O130       Zr638   2.335   1_544  S
O130      Zr1152   2.325   1_454  S
C131        C264   1.492       .  S
C132        C345   1.515       .  S
C133        C225   1.502       .  S
C134        C237   1.494       .  S
C135        C321   1.499       .  S
C136        C336   1.484       .  S
C137        C309   1.458       .  S
C138        C297   1.436       .  S
H139        O140   0.965       .  S
O140      Zr1149   2.368   1_445  S
O140       Zr638   2.330   1_545  S
O140      Zr1152   2.333   1_455  S
H141        O142   0.966       .  S
O142       Zr636   2.359   1_545  S
O142       Zr639   2.338   1_554  S
N143        H175   1.040       .  S
N143        C148   1.346       .  A
N143        C147   1.347       .  A
N144        C151   1.343       .  A
N144        C152   1.343       .  A
N145        H176   1.041       .  S
N145        C150   1.348       .  A
N145        C149   1.348       .  A
N146        C153   1.344       .  A
N146        C154   1.346       .  A
C147        C155   1.387       .  A
C147        C163   1.403       .  A
C148        C164   1.405       .  A
C148        C156   1.389       .  A
C149        C157   1.386   1_556  A
C149        C166   1.404       .  A
C150        C165   1.406       .  A
C150        C158   1.387   1_556  A
C151        C163   1.398       .  A
C151        C159   1.385       .  A
C152        C166   1.402       .  A
C152        C160   1.387       .  A
C153        C161   1.388       .  A
C153        C164   1.405       .  A
C154        C162   1.384       .  A
C154        C165   1.401       .  A
C155        C156   1.370       .  A
C155        H167   1.082   1_556  S
C156        H168   1.082       .  S
C157        C158   1.373       .  A
C157        H169   1.082       .  S
C158        H170   1.082       .  S
C159        C160   1.372       .  A
C159        H171   1.082       .  S
C160        H172   1.082       .  S
C161        C162   1.372       .  A
C161        H173   1.082       .  S
C162        H174   1.083       .  S
C163        C285   1.460       .  S
C164        C300   1.461       .  S
C165        C312   1.470       .  S
C166        C273   1.466       .  S
C177        C178   1.527       .  S
C177        C181   1.542       .  S
C177       C1207   1.552       .  S
C177        C468   1.560       .  S
C178        H185   1.087       .  S
C178       C1203   1.359       .  D
C179        C180   1.559       .  S
C179       C1202   1.361       .  D
C179        C261   1.500       .  S
C180        C184   1.543       .  S
C180        C182   1.558       .  S
C180        H186   1.107       .  S
C181        H187   1.078       .  S
C181       C1206   1.369       .  D
C182       C1205   1.370       .  D
C182        C252   1.517       .  S
C183       C1201   1.547       .  S
C183        H188   1.085       .  S
C183        C184   1.378       .  D
C184        C480   1.507       .  S
C189        C190   1.530       .  S
C189        C195   1.552       .  S
C189        C705   1.543       .  S
C189        C228   1.559       .  S
C190        H197   1.087       .  S
C190        C191   1.362       .  D
C191        C192   1.562       .  S
C191        C492   1.507       .  S
C192        C196   1.547       .  S
C192        C706   1.558       .  S
C192        H198   1.109       .  S
C193        C701   1.540   1_545  S
C193        H199   1.081       .  S
C193        C194   1.364       .  D
C194        C704   1.555   1_545  S
C194        C504   1.504       .  S
C195        H200   1.085       .  S
C195        C196   1.380       .  D
C196        C240   1.506       .  S
C201        C202   1.542       .  S
C201        C205   1.534       .  S
C201       C1231   1.559       .  S
C201        C381   1.563       .  S
C202        H209   1.080       .  S
C202       C1227   1.363       .  D
C203        C204   1.555       .  S
C203       C1226   1.364       .  D
C203        C360   1.509       .  S
C204        C208   1.535       .  S
C204        C206   1.559       .  S
C204        H210   1.110       .  S
C205        H211   1.086       .  S
C205       C1230   1.365       .  D
C206       C1229   1.363       .  D
C206        C348   1.503       .  S
C207       C1225   1.562       .  S
C207        H212   1.085       .  S
C207        C208   1.382       .  D
C208        C369   1.505       .  S
C213        C219   1.553       .  S
C213        C217   1.542       .  S
C213        C726   1.535       .  S
C213        C333   1.563       .  S
C214        C725   1.538   1_545  S
C214        H221   1.084       .  S
C214        C215   1.375       .  D
C215        C728   1.563       .  S
C215        C396   1.524       .  S
C216        C220   1.546       .  S
C216        C218   1.542       .  S
C216        C727   1.563       .  S
C216        H222   1.106       .  S
C217        H223   1.080       .  S
C217        C218   1.356       .  D
C218        C408   1.487       .  S
C219        H224   1.085       .  S
C219        C220   1.381       .  D
C220        C324   1.508       .  S
C225        C226   1.411       .  A
C225        C742   1.409       .  A
C226        C227   1.409       .  A
C226        H235   1.083       .  S
C227        C228   1.422       .  A
C227        S231   1.810       .  S
C228        C741   1.421       .  A
C229        C230   1.409       .  A
C229        C740   1.423   1_545  A
C229        H236   1.075       .  S
C230        C737   1.408   1_545  A
C230        S232   1.805       .  S
S231        H234   1.407       .  S
S232        H233   1.406       .  S
C237        C238   1.404       .  A
C237        C754   1.419       .  A
C238        C239   1.411       .  A
C238        H247   1.084       .  S
C239        C240   1.421       .  A
C239        S243   1.797       .  S
C240        C753   1.403       .  A
C241        C242   1.402       .  A
C241        C752   1.404   1_545  A
C241        H248   1.084       .  S
C242        C749   1.420       .  A
C242        S244   1.806       .  S
S243        H246   1.405       .  S
S244        H245   1.406       .  S
C249        C250   1.415       .  A
C249       C1278   1.417       .  A
C250        C251   1.409       .  A
C250        H259   1.083       .  S
C251        C252   1.415       .  A
C251        S255   1.800       .  S
C252       C1277   1.415       .  A
C253        C254   1.406       .  A
C253       C1276   1.416   1_455  A
C253        H260   1.083       .  S
C254       C1273   1.416   1_455  A
C254        S256   1.802       .  S
S255        H258   1.401       .  S
S256        H257   1.408       .  S
C261        C262   1.410       .  A
C261       C1290   1.417       .  A
C262        C263   1.415       .  A
C262        H271   1.079       .  S
C263        C264   1.417       .  A
C263        S267   1.804       .  S
C264       C1289   1.405       .  A
C265        C266   1.400       .  A
C265       C1288   1.405   1_455  A
C265        H272   1.085       .  S
C266       C1285   1.418       .  A
C266        S268   1.809       .  S
S267        H270   1.405       .  S
S268        H269   1.402       .  S
C273        C274   1.399       .  A
C273        C278   1.410   1_556  A
C274        C275   1.393       .  A
C274        H283   1.084       .  S
C275        C276   1.411       .  A
C275        S279   1.802       .  S
C276        C277   1.400   1_556  A
C277        C278   1.389       .  A
C277        H284   1.085       .  S
C278        S280   1.806       .  S
S279        H282   1.404       .  S
S280        H281   1.405       .  S
C285        C286   1.397       .  A
C285        C290   1.413   1_556  A
C286        C287   1.388       .  A
C286        H295   1.084       .  S
C287        C288   1.408       .  A
C287        S291   1.799       .  S
C288        C289   1.395   1_556  A
C289        C290   1.391       .  A
C289        H296   1.084       .  S
C290        S292   1.808       .  S
S291        H294   1.403       .  S
S292        H293   1.401       .  S
C297        C298   1.394   1_556  A
C297        C302   1.412       .  A
C298        C299   1.386       .  A
C298        H307   1.084       .  S
C299        C300   1.411   1_554  A
C299        S303   1.806       .  S
C300        C301   1.399       .  A
C301        C302   1.389       .  A
C301        H308   1.084       .  S
C302        S304   1.811       .  S
S303        H306   1.405       .  S
S304        H305   1.401       .  S
C309        C310   1.400       .  A
C309        C314   1.412   1_556  A
C310        C311   1.390       .  A
C310        H319   1.085       .  S
C311        C312   1.408       .  A
C311        S315   1.805       .  S
C312        C313   1.402   1_556  A
C313        C314   1.397       .  A
C313        H320   1.084       .  S
C314        S316   1.806       .  S
S315        H318   1.406       .  S
S316        H317   1.405       .  S
C321        C322   1.409       .  A
C321        C838   1.417   1_545  A
C322        C323   1.402       .  A
C322        H331   1.083       .  S
C323        C836   1.413       .  A
C323        S327   1.803       .  S
C324        C325   1.412       .  A
C324        C835   1.411       .  A
C325        C326   1.418       .  A
C325        H332   1.083       .  S
C326        C833   1.422       .  A
C326        S328   1.804       .  S
S327        H330   1.406       .  S
S328        H329   1.400       .  S
C333        C334   1.422       .  A
C333        C850   1.425       .  A
C334        C335   1.405       .  A
C334        H343   1.073       .  S
C335        C848   1.405       .  A
C335        S339   1.805       .  S
C336        C337   1.405   1_565  A
C336        C847   1.406       .  A
C337        C338   1.410       .  A
C337        H344   1.083       .  S
C338        C845   1.424   1_545  A
C338        S340   1.810       .  S
S339        H342   1.403       .  S
S340        H341   1.407       .  S
C345        C350   1.437       .  A
C345       C1370   1.404       .  A
C346        C347   1.413   1_655  A
C346       C1369   1.405       .  A
C346        H355   1.083       .  S
C347       C1372   1.423       .  A
C347        S351   1.801       .  S
C348        C349   1.394       .  A
C348       C1371   1.424       .  A
C349        C350   1.404       .  A
C349        H356   1.084       .  S
C350        S352   1.803       .  S
S351        H354   1.405   1_455  S
S352        H353   1.398       .  S
C357        C358   1.400       .  A
C357       C1386   1.431       .  A
C358        C359   1.405       .  A
C358        H367   1.084       .  S
C359        C360   1.427       .  A
C359        S363   1.803       .  S
C360       C1385   1.398       .  A
C361        C362   1.409       .  A
C361       C1384   1.397       .  A
C361        H368   1.083       .  S
C362       C1381   1.434       .  A
C362        S364   1.812       .  S
S363        H366   1.400       .  S
S364        H365   1.407       .  S
C369        C370   1.402       .  A
C369        C374   1.421       .  A
C370        C371   1.405       .  A
C370        H379   1.080       .  S
C371        C372   1.414       .  A
C371        S375   1.805       .  S
C372        C373   1.403       .  A
C373        C374   1.414       .  A
C373        H380   1.083       .  S
C374        S376   1.805       .  S
S375        H378   1.407       .  S
S376        H377   1.407       .  S
C381        C382   1.423       .  A
C381        C386   1.422       .  A
C382        C383   1.411       .  A
C382        H391   1.076       .  S
C383        C384   1.409       .  A
C383        S387   1.804       .  S
C384        C385   1.407       .  A
C385        C386   1.409       .  A
C385        H392   1.084       .  S
C386        S388   1.804       .  S
S387        H390   1.407       .  S
S388        H389   1.407       .  S
C393        C394   1.402       .  A
C393        C398   1.409       .  A
C394        C395   1.416       .  A
C394        H403   1.079       .  S
C395        C396   1.426       .  A
C395        S399   1.805       .  S
C396        C397   1.415       .  A
C397        C398   1.404       .  A
C397        H404   1.081       .  S
C398        S400   1.804       .  S
S399        H402   1.407       .  S
S400        H401   1.404       .  S
C405        C406   1.416       .  A
C405        C410   1.415       .  A
C406        C407   1.403       .  A
C406        H415   1.082       .  S
C407        C408   1.403       .  A
C407        S411   1.807       .  S
C408        C409   1.407       .  A
C409        C410   1.410       .  A
C409        H416   1.084       .  S
C410        S412   1.796       .  S
S411        H414   1.407       .  S
S412        H413   1.407       .  S
C417        C418   1.399       .  A
C417        C422   1.409       .  A
C418        C419   1.395       .  A
C418        H427   1.084       .  S
C419        C420   1.411       .  A
C419        S423   1.803       .  S
C420        C421   1.399       .  A
C421        C422   1.399       .  A
C421        H428   1.083       .  S
C422        S424   1.804       .  S
S423        H426   1.406       .  S
S424        H425   1.407       .  S
C429        C430   1.399       .  A
C429        C434   1.411       .  A
C430        C431   1.389       .  A
C430        H439   1.084       .  S
C431        C432   1.414       .  A
C431        S435   1.796       .  S
C432        C433   1.403       .  A
C433        C434   1.395       .  A
C433        H440   1.083       .  S
C434        S436   1.804       .  S
S435        H438   1.404       .  S
S436        H437   1.407       .  S
C441        C442   1.402       .  A
C441        C446   1.411       .  A
C442        C443   1.391       .  A
C442        H451   1.084       .  S
C443        C444   1.409       .  A
C443        S447   1.806       .  S
C444        C445   1.400       .  A
C445        C446   1.390       .  A
C445        H452   1.084       .  S
C446        S448   1.804       .  S
S447        H450   1.407       .  S
S448        H449   1.404       .  S
C453        C454   1.401       .  A
C453        C458   1.412       .  A
C454        C455   1.391       .  A
C454        H463   1.084       .  S
C455        C456   1.408       .  A
C455        S459   1.803       .  S
C456        C457   1.399       .  A
C457        C458   1.390       .  A
C457        H464   1.084       .  S
C458        S460   1.804       .  S
S459        H462   1.405       .  S
S460        H461   1.405       .  S
C465        C466   1.401       .  A
C465        C470   1.412       .  A
C466        C467   1.407       .  A
C466        H475   1.077       .  S
C467        C468   1.422       .  A
C467        S471   1.809       .  S
C468        C469   1.421       .  A
C469        C470   1.409       .  A
C469        H476   1.074       .  S
C470        S472   1.807       .  S
S471        H474   1.407       .  S
S472        H473   1.402       .  S
C477        C478   1.409       .  A
C477        C482   1.414       .  A
C478        C479   1.400       .  A
C478        H487   1.084       .  S
C479        C480   1.415       .  A
C479        S483   1.802       .  S
C480        C481   1.411       .  A
C481        C482   1.412       .  A
C481        H488   1.079       .  S
C482        S484   1.802       .  S
S483        H486   1.407       .  S
S484        H485   1.406       .  S
C489        C490   1.422       .  A
C489        C494   1.422       .  A
C490        C491   1.404       .  A
C490        H499   1.083       .  S
C491        C492   1.404       .  A
C491        S495   1.801       .  S
C492        C493   1.414       .  A
C493        C494   1.416       .  A
C493        H500   1.084       .  S
C494        S496   1.801       .  S
S495        H498   1.407       .  S
S496        H497   1.400       .  S
C501        C502   1.406       .  A
C501        C506   1.415       .  A
C502        C503   1.418       .  A
C502        H511   1.082       .  S
C503        C504   1.419       .  A
C503        S507   1.801       .  S
C504        C505   1.403       .  A
C505        C506   1.398       .  A
C505        H512   1.084       .  S
C506        S508   1.800       .  S
S507        H510   1.407       .  S
S508        H509   1.406       .  S
O513       Zr549   2.518       .  S
O513        C524   1.308       .  A
O514       Zr548   2.493       .  S
O514        C525   1.303       .  A
O515       Zr521   2.429       .  S
O515        C526   1.290       .  A
O516       Zr521   2.418       .  S
O516        C527   1.287       .  A
O517       Zr551   2.416       .  S
O517        C527   1.287       .  A
O518       Zr550   2.410       .  S
O518        C526   1.286       .  A
O519       Zr521   2.436       .  S
O519        C525   1.291       .  A
O520       Zr521   2.427       .  S
O520        C524   1.290       .  A
Zr521       O522   2.327       .  S
Zr521       O523   2.346       .  S
Zr521       O531   2.346       .  S
Zr521       O529   2.339       .  S
O522       Zr548   2.356       .  S
O522       Zr551   2.329       .  S
O523       Zr549   2.366       .  S
O523       Zr550   2.338       .  S
C524       C1013   1.501       .  S
C525        C905   1.492       .  S
C526        C929   1.461       .  S
C527        C944   1.471       .  S
H528        O529   0.962       .  S
O529       Zr548   2.360       .  S
O529       Zr550   2.346       .  S
H530        O531   0.969       .  S
O531       Zr549   2.367       .  S
O531       Zr551   2.334       .  S
O532       Zr548   2.508       .  S
O532        C555   1.305       .  A
O533       Zr549   2.515       .  S
O533        C556   1.306       .  A
O534       Zr550   2.406       .  S
O534        C557   1.286       .  A
O535       Zr551   2.419       .  S
O535        C558   1.289       .  A
O536       Zr551   2.435       .  S
O536        C559   1.292       .  A
O537       Zr550   2.423       .  S
O537        C560   1.289       .  A
O538       Zr552   2.407       .  S
O538        C561   1.285       .  A
O539       Zr552   2.413       .  S
O539        C562   1.286       .  A
O540       Zr550   2.422       .  S
O540        C561   1.287       .  A
O541       Zr551   2.420       .  S
O541        C562   1.287       .  A
O542       Zr548   2.521       .  S
O542        C557   1.308       .  A
O543       Zr549   2.511       .  S
O543        C560   1.306       .  A
O544       Zr549   2.499       .  S
O544        C559   1.304       .  A
O545       Zr548   2.502       .  S
O545        C558   1.305       .  A
O546       Zr552   2.410       .  S
O546        C555   1.287       .  A
O547       Zr552   2.407       .  S
O547        C556   1.288       .  A
Zr548       O554   2.357       .  S
Zr548       O566   2.356       .  S
Zr549       O553   2.367       .  S
Zr549       O564   2.361       .  S
Zr550       O554   2.335       .  S
Zr550       O564   2.331       .  S
Zr551       O553   2.331       .  S
Zr551       O566   2.336       .  S
Zr552       O553   2.332       .  S
Zr552       O554   2.332       .  S
Zr552       O566   2.329       .  S
Zr552       O564   2.341       .  S
C555        C917   1.517       .  S
C556       C1001   1.519       .  S
C557        C884   1.500       .  S
C558        C896   1.496       .  S
C559        C977   1.496       .  S
C560        C989   1.500       .  S
C561        C965   1.454       .  S
C562        C953   1.460       .  S
H563        O564   0.965       .  S
H565        O566   0.966       .  S
N567        H599   1.041   1_545  S
N567        C571   1.349   1_545  A
N568       C1599   1.345   1_455  A
N568        C576   1.342       .  A
N569        H600   1.044       .  S
N569        C573   1.344       .  A
N570       C1601   1.344   1_455  A
N570        C578   1.343       .  A
C571        C579   1.385       .  A
C571        C587   1.404       .  A
C572        C588   1.404       .  A
C572        C580   1.387       .  A
C573        C581   1.388       .  A
C573        C590   1.404       .  A
C574        C589   1.403       .  A
C574        C582   1.388       .  A
C575       N1592   1.344       .  A
C575        C587   1.402       .  A
C575        C583   1.385       .  A
C576        C590   1.404       .  A
C576        C584   1.388       .  A
C577       N1594   1.343       .  A
C577        C585   1.386       .  A
C577        C588   1.401       .  A
C578        C586   1.385       .  A
C578        C589   1.406       .  A
C579        H591   1.083       .  S
C580        H592   1.082       .  S
C581        H593   1.082       .  S
C582        H594   1.082       .  S
C583       C1608   1.376       .  A
C583        H595   1.080       .  S
C584       C1607   1.377   1_455  A
C584        H596   1.082       .  S
C585       C1610   1.375       .  A
C585        H597   1.083       .  S
C586       C1609   1.376       .  A
C586        H598   1.079       .  S
C587        C968   1.469       .  S
C588        C932   1.466       .  S
C589        C941   1.477       .  S
C590        C956   1.469       .  S
O601        C612   1.311       .  A
O602       Zr636   2.495       .  S
O602        C613   1.304       .  A
O603      Zr1633   2.405   1_455  S
O603        C614   1.284       .  A
O604       Zr609   2.427       .  S
O604        C615   1.288       .  A
O605       Zr639   2.403   1_565  S
O605        C615   1.283       .  A
O606       Zr638   2.408       .  S
O606        C614   1.285       .  A
O607       Zr609   2.422   1_554  S
O607        C613   1.290       .  A
O608       Zr609   2.402       .  S
O608        C612   1.284       .  A
Zr609      O1627   2.416       .  S
Zr609       O610   2.329   1_556  S
Zr609      O1635   2.341       .  S
Zr609       O619   2.338       .  S
Zr609      O1641   2.329   1_556  S
O610       Zr636   2.360       .  S
O610       Zr639   2.330   1_564  S
O611      Zr1633   2.338   1_455  S
O611      Zr1149   2.365   1_455  S
O611       Zr638   2.333       .  S
C612        C869   1.514       .  S
C613        C761   1.507       .  S
C614        C788   1.445       .  S
C615        C800   1.450       .  S
H616        O617   0.966       .  S
O617      Zr1633   2.337   1_454  S
O617      Zr1660   2.363   1_455  S
O617       Zr638   2.332   1_554  S
H618        O619   0.965       .  S
O619       Zr639   2.330   1_565  S
O620        C643   1.305       .  A
O621       Zr637   2.524       .  S
O621        C644   1.310       .  A
O622       Zr638   2.407   1_554  S
O622        C645   1.287       .  A
O623       Zr639   2.404   1_554  S
O623        C646   1.286       .  A
O624        C647   1.290       .  A
O625        C648   1.286       .  A
O626      Zr1664   2.411   1_455  S
O626        C649   1.286       .  A
O627       Zr640   2.404       .  S
O627        C650   1.283       .  A
O628        C649   1.282       .  A
O629        C650   1.284       .  A
O630      Zr1660   2.498   1_455  S
O630        C645   1.304       .  A
O631      Zr1661   2.508   1_455  S
O631        C648   1.307       .  A
O632       Zr637   2.510       .  S
O632        C647   1.306       .  A
O633       Zr636   2.505   1_545  S
O633        C646   1.305       .  A
O634       Zr640   2.406   1_554  S
O634        C643   1.286       .  A
O635       Zr640   2.402       .  S
O635        C644   1.284       .  A
Zr636      O1654   2.509       .  S
Zr636      O1641   2.358       .  S
Zr636      O1154   2.364   1_565  S
Zr637      O1655   2.502       .  S
Zr637      O1123   2.368       .  S
Zr637       O641   2.358       .  S
Zr637      O1676   2.363       .  S
Zr640      O1650   2.417       .  S
Zr640       O641   2.333       .  S
Zr640      O1666   2.326   1_556  S
Zr640       O654   2.333   1_556  S
Zr640      O1676   2.329       .  S
O642      Zr1148   2.356   1_455  S
O642      Zr1664   2.327   1_454  S
C643        C776   1.489       .  S
C644        C857   1.512       .  S
C645        C737   1.490       .  S
C646        C749   1.494       .  S
C647        C833   1.508       .  S
C648        C848   1.490       .  S
C649        C821   1.447       .  S
C650        C809   1.439       .  S
H651        O652   0.966       .  S
O652      Zr1661   2.357   1_455  S
O652      Zr1664   2.325   1_455  S
H653        O654   0.965       .  S
N655        H687   1.037       .  S
N655        C660   1.346   1_556  A
N655        C659   1.348   1_556  A
N656        C663   1.346       .  A
N656        C664   1.343       .  A
N657        H688   1.041       .  S
N657        C662   1.345   1_556  A
N657        C661   1.344   1_556  A
N658        C665   1.344       .  A
N658        C666   1.347       .  A
C659        C667   1.387       .  A
C659        C675   1.406   1_554  A
C660        C676   1.407   1_554  A
C660        C668   1.389       .  A
C661        C669   1.387       .  A
C661        C678   1.399   1_554  A
C662        C677   1.401   1_554  A
C662        C670   1.388       .  A
C663        C675   1.402       .  A
C663        C671   1.385       .  A
C664        C678   1.403       .  A
C664        C672   1.387       .  A
C665        C673   1.390       .  A
C665        C676   1.408       .  A
C666        C674   1.383       .  A
C666        C677   1.398       .  A
C667        C668   1.371       .  A
C667        H679   1.082       .  S
C668        H680   1.082       .  S
C669        C670   1.372       .  A
C669        H681   1.083       .  S
C670        H682   1.083       .  S
C671        C672   1.373       .  A
C671        H683   1.082       .  S
C672        H684   1.082       .  S
C673        C674   1.367       .  A
C673        H685   1.081       .  S
C674        H686   1.083       .  S
C675        C797   1.468       .  S
C676        C812   1.461       .  S
C677        C824   1.465       .  S
C678        C785   1.459   1_556  S
C689        C690   1.526       .  S
C689       C1719   1.555       .  S
C689        C693   1.543       .  S
C689        C980   1.564       .  S
C690        H697   1.087       .  S
C690       C1715   1.360       .  D
C691        C692   1.562       .  S
C691       C1714   1.360       .  D
C691        C773   1.501       .  S
C692        C696   1.546       .  S
C692        C694   1.561       .  S
C692        H698   1.108       .  S
C693        H699   1.078       .  S
C693       C1718   1.371       .  D
C694       C1717   1.369       .  D
C694        C764   1.515       .  S
C695       C1713   1.548       .  S
C695        H700   1.086       .  S
C695        C696   1.376       .  D
C696        C992   1.507       .  S
C701        C702   1.534       .  S
C701        C707   1.552       .  S
C701        C740   1.557       .  S
C702        H709   1.087       .  S
C702        C703   1.362       .  D
C703        C704   1.558       .  S
C703       C1004   1.502       .  S
C704        C708   1.548       .  S
C704        H710   1.110       .  S
C705        H711   1.083       .  S
C705        C706   1.366       .  D
C706       C1016   1.513       .  S
C707        H712   1.086   1_565  S
C707        C708   1.378       .  D
C708        C752   1.507       .  S
C713        C714   1.544       .  S
C713       C1743   1.558       .  S
C713        C717   1.532       .  S
C713        C893   1.566       .  S
C714        H721   1.079       .  S
C714       C1739   1.360       .  D
C715        C716   1.556       .  S
C715       C1738   1.361       .  D
C715        C872   1.516       .  S
C716        C720   1.537       .  S
C716        C718   1.560       .  S
C716        H722   1.109       .  S
C717        H723   1.086       .  S
C717       C1742   1.366       .  D
C718       C1741   1.368       .  D
C718        C860   1.507       .  S
C719       C1737   1.560       .  S
C719        H724   1.085       .  S
C719        C720   1.384       .  D
C720        C881   1.510       .  S
C725        C731   1.551   1_565  S
C725        C729   1.537       .  S
C725        C845   1.563       .  S
C726        H733   1.085       .  S
C726        C727   1.372       .  D
C727        C908   1.524       .  S
C728        C732   1.543       .  S
C728        C730   1.547   1_545  S
C728        H734   1.108       .  S
C729        H735   1.078       .  S
C729        C730   1.354       .  D
C730        C920   1.492       .  S
C731        H736   1.086   1_545  S
C731        C732   1.379       .  D
C732        C836   1.502       .  S
C737        C738   1.405       .  A
C738        C739   1.405       .  A
C738        H747   1.083       .  S
C739        C740   1.421       .  A
C739        S743   1.810       .  S
C741        C742   1.409       .  A
C741        H748   1.077       .  S
C742        S744   1.801       .  S
S743        H746   1.406       .  S
S744        H745   1.407       .  S
C749        C750   1.404   1_545  A
C750        C751   1.411       .  A
C750        H759   1.084       .  S
C751        C752   1.420       .  A
C751        S755   1.797       .  S
C753        C754   1.400       .  A
C753        H760   1.084       .  S
C754        S756   1.803       .  S
S755        H758   1.405       .  S
S756        H757   1.406       .  S
C761        C762   1.415       .  A
C761       C1790   1.414       .  A
C762        C763   1.407       .  A
C762        H771   1.084       .  S
C763        C764   1.413       .  A
C763        S767   1.799       .  S
C764       C1789   1.416       .  A
C765       C1788   1.417   1_455  A
C765        C766   1.407   1_455  A
C765        H772   1.083       .  S
C766       C1785   1.414       .  A
C766        S768   1.801   1_655  S
S767        H770   1.403       .  S
S768        H769   1.408       .  S
C773        C774   1.407       .  A
C773       C1802   1.419       .  A
C774        C775   1.412       .  A
C774        H783   1.077       .  S
C775        C776   1.416       .  A
C775        S779   1.803       .  S
C776       C1801   1.405       .  A
C777       C1800   1.408   1_455  A
C777        C778   1.400       .  A
C777        H784   1.085       .  S
C778       C1797   1.417       .  A
C778        S780   1.809       .  S
S779        H782   1.404       .  S
S780        H781   1.402       .  S
C785        C786   1.398   1_554  A
C785        C790   1.405       .  A
C786        C787   1.390       .  A
C786        H795   1.084       .  S
C787        C788   1.410       .  A
C787        S791   1.804       .  S
C788        C789   1.400   1_556  A
C789        C790   1.387       .  A
C789        H796   1.084       .  S
C790        S792   1.803       .  S
S791        H794   1.404       .  S
S792        H793   1.407       .  S
C797        C798   1.400       .  A
C797        C802   1.411   1_556  A
C798        C799   1.391       .  A
C798        H807   1.084       .  S
C799        C800   1.407       .  A
C799        S803   1.802       .  S
C800        C801   1.399   1_556  A
C801        C802   1.394       .  A
C801        H808   1.084       .  S
C802        S804   1.804       .  S
S803        H806   1.406       .  S
S804        H805   1.404       .  S
C809        C810   1.398   1_556  A
C809        C814   1.410       .  A
C810        C811   1.387       .  A
C810        H819   1.084       .  S
C811        C812   1.408   1_554  A
C811        S815   1.804       .  S
C812        C813   1.400       .  A
C813        C814   1.388       .  A
C813        H820   1.085       .  S
C814        S816   1.809       .  S
S815        H818   1.406       .  S
S816        H817   1.402       .  S
C821        C822   1.399       .  A
C821        C826   1.410   1_556  A
C822        C823   1.387       .  A
C822        H831   1.085       .  S
C823        C824   1.409       .  A
C823        S827   1.805       .  S
C824        C825   1.400   1_556  A
C825        C826   1.390       .  A
C825        H832   1.084       .  S
C826        S828   1.805       .  S
S827        H830   1.406       .  S
S828        H829   1.406       .  S
C833        C834   1.410       .  A
C834        C835   1.400       .  A
C834        H843   1.082       .  S
C835        S839   1.802       .  S
C836        C837   1.410   1_545  A
C837        C838   1.414       .  A
C837        H844   1.084       .  S
C838        S840   1.803       .  S
S839        H842   1.407       .  S
S840        H841   1.403       .  S
C845        C846   1.424       .  A
C846        C847   1.405       .  A
C846        H855   1.072       .  S
C847        S851   1.810       .  S
C848        C849   1.407       .  A
C849        C850   1.412       .  A
C849        H856   1.083       .  S
C850        S852   1.810       .  S
S851        H854   1.403       .  S
S852        H853   1.407       .  S
C857       C1882   1.403       .  A
C857        C862   1.433       .  A
C858       C1881   1.405       .  A
C858        C859   1.411   1_655  A
C858        H867   1.083   1_655  S
C859       C1884   1.424   1_455  A
C859        S863   1.801       .  S
C860       C1883   1.425       .  A
C860        C861   1.395       .  A
C861        C862   1.404       .  A
C861        H868   1.084       .  S
C862        S864   1.802       .  S
S863        H866   1.406   1_455  S
S864        H865   1.399       .  S
C869        C870   1.402       .  A
C869       C1898   1.433       .  A
C870        C871   1.409       .  A
C870        H879   1.083       .  S
C871        C872   1.428       .  A
C871        S875   1.803       .  S
C872       C1897   1.398       .  A
C873       C1896   1.396       .  A
C873        C874   1.414       .  A
C873        H880   1.082       .  S
C874       C1893   1.440       .  A
C874        S876   1.814       .  S
S875        H878   1.404       .  S
S876        H877   1.406       .  S
C881        C882   1.401       .  A
C881        C886   1.424       .  A
C882        C883   1.405       .  A
C882        H891   1.082       .  S
C883        C884   1.419       .  A
C883        S887   1.806       .  S
C884        C885   1.404       .  A
C885        C886   1.418       .  A
C885        H892   1.082       .  S
C886        S888   1.805       .  S
S887        H890   1.404       .  S
S888        H889   1.407       .  S
C893        C894   1.422       .  A
C893        C898   1.423       .  A
C894        C895   1.406       .  A
C894        H903   1.074       .  S
C895        C896   1.407       .  A
C895        S899   1.801       .  S
C896        C897   1.407       .  A
C897        C898   1.411       .  A
C897        H904   1.083       .  S
C898        S900   1.803       .  S
S899        H902   1.406       .  S
S900        H901   1.407       .  S
C905        C906   1.400       .  A
C905        C910   1.409       .  A
C906        C907   1.414       .  A
C906        H915   1.080       .  S
C907        C908   1.425       .  A
C907        S911   1.804       .  S
C908        C909   1.417       .  A
C909        C910   1.406       .  A
C909        H916   1.082       .  S
C910        S912   1.803       .  S
S911        H914   1.406       .  S
S912        H913   1.405       .  S
C917        C918   1.423       .  A
C917        C922   1.420       .  A
C918        C919   1.407       .  A
C918        H927   1.081       .  S
C919        C920   1.401       .  A
C919        S923   1.807       .  S
C920        C921   1.408       .  A
C921        C922   1.408       .  A
C921        H928   1.084       .  S
C922        S924   1.798       .  S
S923        H926   1.407       .  S
S924        H925   1.401       .  S
C929        C930   1.402       .  A
C929        C934   1.411       .  A
C930        C931   1.394       .  A
C930        H939   1.084       .  S
C931        C932   1.410       .  A
C931        S935   1.804       .  S
C932        C933   1.397       .  A
C933        C934   1.389       .  A
C933        H940   1.085       .  S
C934        S936   1.797       .  S
S935        H938   1.405       .  S
S936        H937   1.406       .  S
C941        C942   1.399       .  A
C941        C946   1.412       .  A
C942        C943   1.388       .  A
C942        H951   1.084       .  S
C943        C944   1.413       .  A
C943        S947   1.797       .  S
C944        C945   1.404       .  A
C945        C946   1.394       .  A
C945        H952   1.084       .  S
C946        S948   1.805       .  S
S947        H950   1.403       .  S
S948        H949   1.406       .  S
C953        C954   1.404       .  A
C953        C958   1.410       .  A
C954        C955   1.391       .  A
C954        H963   1.085       .  S
C955        C956   1.413       .  A
C955        S959   1.810       .  S
C956        C957   1.401       .  A
C957        C958   1.390       .  A
C957        H964   1.084       .  S
C958        S960   1.804       .  S
S959        H962   1.406       .  S
S960        H961   1.406       .  S
C965        C966   1.399       .  A
C965        C970   1.411       .  A
C966        C967   1.393       .  A
C966        H975   1.084       .  S
C967        C968   1.411       .  A
C967        S971   1.803       .  S
C968        C969   1.398       .  A
C969        C970   1.390       .  A
C969        H976   1.084       .  S
C970        S972   1.802       .  S
S971        H974   1.405       .  S
S972        H973   1.406       .  S
C977        C978   1.402       .  A
C977        C982   1.412       .  A
C978        C979   1.409       .  A
C978        H987   1.075       .  S
C979        C980   1.424       .  A
C979        S983   1.811       .  S
C980        C981   1.421       .  A
C981        C982   1.410       .  A
C981        H988   1.074       .  S
C982        S984   1.805       .  S
S983        H986   1.406       .  S
S984        H985   1.403       .  S
C989        C990   1.409       .  A
C989        C994   1.416       .  A
C990        C991   1.406       .  A
C990        H999   1.084       .  S
C991        C992   1.415       .  A
C991        S995   1.803       .  S
C992        C993   1.409       .  A
C993        C994   1.413       .  A
C993       H1000   1.077       .  S
C994        S996   1.804       .  S
S995        H998   1.404       .  S
S996        H997   1.405       .  S
C1001      C1002   1.421       .  A
C1001      C1006   1.421       .  A
C1002      C1003   1.402       .  A
C1002      H1011   1.083       .  S
C1003      C1004   1.404       .  A
C1003      S1007   1.801       .  S
C1004      C1005   1.412       .  A
C1005      C1006   1.414       .  A
C1005      H1012   1.084       .  S
C1006      S1008   1.802       .  S
S1007      H1010   1.405       .  S
S1008      H1009   1.400       .  S
C1013      C1014   1.406       .  A
C1013      C1018   1.418       .  A
C1014      C1015   1.421       .  A
C1014      H1023   1.082       .  S
C1015      C1016   1.421       .  A
C1015      S1019   1.800       .  S
C1016      C1017   1.404       .  A
C1017      C1018   1.403       .  A
C1017      H1024   1.084       .  S
C1018      S1020   1.801       .  S
S1019      H1022   1.407       .  S
S1020      H1021   1.405       .  S
O1025     Zr1061   2.494       .  S
O1025      C1036   1.304       .  A
O1026     Zr1060   2.476       .  S
O1026      C1037   1.299       .  A
O1027     Zr1033   2.424       .  S
O1027      C1038   1.288       .  A
O1028     Zr1033   2.416       .  S
O1028      C1039   1.287       .  A
O1029     Zr1063   2.423       .  S
O1029      C1039   1.288       .  A
O1030     Zr1062   2.408       .  S
O1030      C1038   1.285       .  A
O1031     Zr1033   2.453       .  S
O1031      C1037   1.294       .  A
O1032     Zr1033   2.428       .  S
O1032      C1036   1.291       .  A
Zr1033     O1034   2.328       .  S
Zr1033     O1035   2.344       .  S
Zr1033     O1043   2.351       .  S
Zr1033     O1041   2.335       .  S
O1034     Zr1060   2.353       .  S
O1034     Zr1063   2.326       .  S
O1035     Zr1061   2.371       .  S
O1035     Zr1062   2.330       .  S
C1036      C1525   1.487       .  S
C1037      C1417   1.491       .  S
C1038      C1441   1.458       .  S
C1039      C1456   1.473       .  S
H1040      O1041   0.970       .  S
O1041     Zr1060   2.365       .  S
O1041     Zr1062   2.339       .  S
H1042      O1043   0.968       .  S
O1043     Zr1061   2.372       .  S
O1043     Zr1063   2.328       .  S
O1044     Zr1060   2.504       .  S
O1044      C1067   1.304       .  A
O1045     Zr1061   2.517       .  S
O1045      C1068   1.306       .  A
O1046     Zr1062   2.409       .  S
O1046      C1069   1.287       .  A
O1047     Zr1063   2.408       .  S
O1047      C1070   1.286       .  A
O1048     Zr1063   2.416       .  S
O1048      C1071   1.288       .  A
O1049     Zr1062   2.414       .  S
O1049      C1072   1.288       .  A
O1050     Zr1064   2.411       .  S
O1050      C1073   1.285       .  A
O1051     Zr1064   2.420       .  S
O1051      C1074   1.288       .  A
O1052     Zr1062   2.408       .  S
O1052      C1073   1.285       .  A
O1053     Zr1063   2.411       .  S
O1053      C1074   1.285       .  A
O1054     Zr1060   2.506       .  S
O1054      C1069   1.305       .  A
O1055     Zr1061   2.504       .  S
O1055      C1072   1.305       .  A
O1056     Zr1061   2.500       .  S
O1056      C1071   1.304       .  A
O1057     Zr1060   2.519       .  S
O1057      C1070   1.309       .  A
O1058     Zr1064   2.395       .  S
O1058      C1067   1.285       .  A
O1059     Zr1064   2.410       .  S
O1059      C1068   1.288       .  A
Zr1060     O1066   2.355       .  S
Zr1060     O1078   2.348       .  S
Zr1061     O1065   2.357       .  S
Zr1061     O1076   2.351       .  S
Zr1062     O1066   2.333       .  S
Zr1062     O1076   2.332       .  S
Zr1063     O1065   2.337       .  S
Zr1063     O1078   2.336       .  S
Zr1064     O1065   2.330       .  S
Zr1064     O1066   2.330       .  S
Zr1064     O1078   2.334       .  S
Zr1064     O1076   2.331       .  S
C1067      C1429   1.501       .  S
C1068      C1513   1.520       .  S
C1069      C1396   1.493       .  S
C1070      C1408   1.503       .  S
C1071      C1489   1.490       .  S
C1072      C1501   1.499       .  S
C1073      C1477   1.451       .  S
C1074      C1465   1.454       .  S
H1075      O1076   0.965       .  S
H1077      O1078   0.965       .  S
N1079      H1111   1.042       .  S
N1079      C1596   1.347       .  A
N1079      C1083   1.346       .  A
N1080      C1088   1.343       .  A
N1081      H1112   1.044       .  S
N1081      C1598   1.347       .  A
N1081      C1085   1.347       .  A
N1082      C1090   1.345       .  A
C1083      C1091   1.386       .  A
C1083      C1099   1.404       .  A
C1084      N1591   1.345       .  A
C1084      C1100   1.404       .  A
C1084      C1092   1.388       .  A
C1085      C1093   1.385       .  A
C1085      C1102   1.401       .  A
C1086      N1593   1.350   1_545  A
C1086      C1101   1.409       .  A
C1086      C1094   1.388       .  A
C1087      C1099   1.401       .  A
C1087      C1095   1.387       .  A
C1088      C1102   1.398       .  A
C1088      C1096   1.385       .  A
C1089      C1097   1.387       .  A
C1089      C1100   1.398       .  A
C1090      C1098   1.385       .  A
C1090      C1101   1.407       .  A
C1091      C1604   1.376       .  A
C1091      H1103   1.083       .  S
C1092      C1603   1.373   1_545  A
C1092      H1104   1.082       .  S
C1093      C1606   1.372       .  A
C1093      H1105   1.082       .  S
C1094      C1605   1.372   1_545  A
C1094      H1106   1.082       .  S
C1095      H1107   1.082       .  S
C1096      H1108   1.082       .  S
C1097      H1109   1.082       .  S
C1098      H1110   1.081       .  S
C1099      C1480   1.463       .  S
C1100      C1444   1.458       .  S
C1101      C1453   1.483       .  S
C1102      C1468   1.467       .  S
O1113     Zr1661   2.524       .  S
O1113      C1124   1.310       .  A
O1114     Zr1148   2.488       .  S
O1114      C1125   1.302       .  A
O1115      C1126   1.287       .  A
O1116     Zr1121   2.435       .  S
O1116      C1127   1.290       .  A
O1117     Zr1151   2.403       .  S
O1117      C1127   1.283       .  A
O1118     Zr1150   2.407       .  S
O1118      C1126   1.285       .  A
O1119     Zr1121   2.429   1_554  S
O1119      C1125   1.292       .  A
O1120     Zr1121   2.392       .  S
O1120      C1124   1.281       .  A
Zr1121     O1122   2.330   1_556  S
Zr1121     O1131   2.338       .  S
O1122     Zr1148   2.367       .  S
O1122     Zr1151   2.342   1_554  S
O1123     Zr1150   2.330       .  S
C1124      C1381   1.508       .  S
C1125      C1273   1.507       .  S
C1126      C1300   1.454       .  S
C1127      C1312   1.451       .  S
H1128      O1129   0.966       .  S
O1129     Zr1150   2.335   1_554  S
H1130      O1131   0.964       .  S
O1131     Zr1661   2.358       .  S
O1131     Zr1151   2.328       .  S
O1132     Zr1660   2.501   1_545  S
O1132      C1155   1.304       .  A
O1133     Zr1149   2.549   1_545  S
O1133      C1156   1.315       .  A
O1134     Zr1150   2.407   1_554  S
O1134      C1157   1.287       .  A
O1135     Zr1151   2.411   1_554  S
O1135      C1158   1.288       .  A
O1136     Zr1663   2.411       .  S
O1136      C1159   1.287       .  A
O1137     Zr1662   2.419       .  S
O1137      C1160   1.288       .  A
O1138      C1161   1.287       .  A
O1139     Zr1152   2.416       .  S
O1139      C1162   1.285       .  A
O1140     Zr1662   2.405   1_545  S
O1140      C1161   1.283       .  A
O1141     Zr1663   2.402       .  S
O1141      C1162   1.283       .  A
O1142      C1157   1.305       .  A
O1143      C1160   1.304       .  A
O1144     Zr1149   2.514       .  S
O1144      C1159   1.308   1_565  A
O1145     Zr1148   2.503       .  S
O1145      C1158   1.305       .  A
O1146     Zr1152   2.421   1_554  S
O1146      C1155   1.289       .  A
O1147     Zr1152   2.391       .  S
O1147      C1156   1.281       .  A
Zr1148     O1644   2.511       .  S
Zr1148     O1678   2.361       .  S
Zr1149     O1625   2.543       .  S
Zr1149     O1643   2.370       .  S
Zr1149     O1153   2.352   1_565  S
Zr1150     O1649   2.420       .  S
Zr1150     O1652   2.407       .  S
Zr1150     O1666   2.333   1_556  S
Zr1150     O1676   2.334       .  S
Zr1151     O1648   2.428       .  S
Zr1151     O1653   2.418       .  S
Zr1151     O1665   2.328       .  S
Zr1151     O1678   2.336   1_556  S
Zr1152     O1153   2.333       .  S
Zr1152     O1166   2.335   1_556  S
O1153     Zr1663   2.320       .  S
O1154     Zr1662   2.341   1_544  S
C1155      C1288   1.496       .  S
C1156      C1369   1.519       .  S
C1157      C1249   1.497       .  S
C1158      C1261   1.493       .  S
C1159      C1345   1.500       .  S
C1160      C1360   1.487       .  S
C1161      C1333   1.450       .  S
C1162      C1321   1.445       .  S
H1163      O1164   0.965       .  S
O1164     Zr1662   2.331   1_545  S
H1165      O1166   0.966       .  S
O1166     Zr1660   2.366   1_545  S
O1166     Zr1663   2.340   1_554  S
N1167      H1199   1.040       .  S
N1167      C1172   1.350       .  A
N1167      C1171   1.349       .  A
N1168      C1175   1.343       .  A
N1168      C1176   1.344       .  A
N1169      H1200   1.039       .  S
N1169      C1174   1.346       .  A
N1169      C1173   1.349       .  A
N1170      C1177   1.344       .  A
N1170      C1178   1.344       .  A
C1171      C1179   1.387       .  A
C1171      C1187   1.407       .  A
C1172      C1188   1.407       .  A
C1172      C1180   1.387       .  A
C1173      C1181   1.386   1_556  A
C1173      C1190   1.404       .  A
C1174      C1189   1.407       .  A
C1174      C1182   1.388   1_556  A
C1175      C1187   1.398       .  A
C1175      C1183   1.385       .  A
C1176      C1190   1.403       .  A
C1176      C1184   1.387       .  A
C1177      C1185   1.387       .  A
C1177      C1188   1.403       .  A
C1178      C1186   1.386       .  A
C1178      C1189   1.401       .  A
C1179      C1180   1.369       .  A
C1179      H1191   1.082       .  S
C1180      H1192   1.082       .  S
C1181      C1182   1.373       .  A
C1181      H1193   1.083       .  S
C1182      H1194   1.083       .  S
C1183      C1184   1.373       .  A
C1183      H1195   1.082       .  S
C1184      H1196   1.082       .  S
C1185      C1186   1.371       .  A
C1185      H1197   1.081       .  S
C1186      H1198   1.083       .  S
C1187      C1309   1.463       .  S
C1188      C1324   1.466       .  S
C1189      C1336   1.463       .  S
C1190      C1297   1.468       .  S
C1201      C1202   1.526       .  S
C1201      C1205   1.545       .  S
C1201      C1492   1.558       .  S
C1202      H1209   1.086       .  S
C1203      C1204   1.559   1_455  S
C1203      C1285   1.500       .  S
C1204      C1208   1.542       .  S
C1204      C1206   1.559   1_655  S
C1204      H1210   1.108       .  S
C1205      H1211   1.078       .  S
C1206      C1276   1.513   1_455  S
C1207      H1212   1.085       .  S
C1207      C1208   1.381   1_455  D
C1208      C1504   1.510       .  S
C1213      C1214   1.532       .  S
C1213      C1219   1.552       .  S
C1213      C1729   1.541       .  S
C1213      C1252   1.556       .  S
C1214      H1221   1.087       .  S
C1214      C1215   1.363       .  D
C1215      C1216   1.559       .  S
C1215      C1516   1.504       .  S
C1216      C1220   1.546       .  S
C1216      C1730   1.558       .  S
C1216      H1222   1.110       .  S
C1217      C1725   1.541   1_545  S
C1217      H1223   1.082       .  S
C1217      C1218   1.365       .  D
C1218      C1728   1.554   1_545  S
C1218      C1528   1.506       .  S
C1219      H1224   1.085       .  S
C1219      C1220   1.378       .  D
C1220      C1264   1.504       .  S
C1225      C1226   1.542       .  S
C1225      C1229   1.529       .  S
C1225      C1405   1.564       .  S
C1226      H1233   1.080       .  S
C1227      C1228   1.553   1_455  S
C1227      C1384   1.508   1_455  S
C1228      C1232   1.536       .  S
C1228      C1230   1.557   1_655  S
C1228      H1234   1.109       .  S
C1229      H1235   1.086       .  S
C1230      C1372   1.505       .  S
C1231      H1236   1.085       .  S
C1231      C1232   1.381   1_455  D
C1232      C1393   1.505       .  S
C1237      C1750   1.532       .  S
C1237      C1243   1.555       .  S
C1237      C1241   1.539       .  S
C1237      C1357   1.561       .  S
C1238      C1749   1.534   1_545  S
C1238      H1245   1.085       .  S
C1238      C1239   1.373       .  D
C1239      C1752   1.564       .  S
C1239      C1420   1.525       .  S
C1240      C1751   1.565       .  S
C1240      C1244   1.546       .  S
C1240      C1242   1.546       .  S
C1240      H1246   1.107       .  S
C1241      H1247   1.082       .  S
C1241      C1242   1.358       .  D
C1242      C1432   1.489       .  S
C1243      H1248   1.085       .  S
C1243      C1244   1.381       .  D
C1244      C1348   1.509       .  S
C1249      C1250   1.409       .  A
C1249      C1766   1.409       .  A
C1250      C1251   1.407       .  A
C1250      H1259   1.083       .  S
C1251      C1252   1.421       .  A
C1251      S1255   1.809       .  S
C1252      C1765   1.422       .  A
C1253      C1764   1.422   1_545  A
C1253      C1254   1.406       .  A
C1253      H1260   1.076       .  S
C1254      C1761   1.407   1_545  A
C1254      S1256   1.803       .  S
S1255      H1258   1.407       .  S
S1256      H1257   1.406       .  S
C1261      C1262   1.404       .  A
C1261      C1778   1.419       .  A
C1262      C1263   1.411       .  A
C1262      H1271   1.084       .  S
C1263      C1264   1.420       .  A
C1263      S1267   1.796       .  S
C1264      C1777   1.401       .  A
C1265      C1776   1.403   1_545  A
C1265      C1266   1.402       .  A
C1265      H1272   1.084       .  S
C1266      C1773   1.420       .  A
C1266      S1268   1.806       .  S
S1267      H1270   1.405       .  S
S1268      H1269   1.407       .  S
C1273      C1274   1.414       .  A
C1274      C1275   1.406       .  A
C1274      H1283   1.083       .  S
C1275      C1276   1.414       .  A
C1275      S1279   1.800       .  S
C1277      C1278   1.407       .  A
C1277      H1284   1.083       .  S
C1278      S1280   1.801       .  S
S1279      H1282   1.399       .  S
S1280      H1281   1.408       .  S
C1285      C1286   1.411   1_455  A
C1286      C1287   1.415       .  A
C1286      H1295   1.081       .  S
C1287      C1288   1.417       .  A
C1287      S1291   1.803       .  S
C1289      C1290   1.399       .  A
C1289      H1296   1.085       .  S
C1290      S1292   1.808       .  S
S1291      H1294   1.406       .  S
S1292      H1293   1.403       .  S
C1297      C1298   1.399       .  A
C1297      C1302   1.409   1_556  A
C1298      C1299   1.392       .  A
C1298      H1307   1.084       .  S
C1299      C1300   1.409       .  A
C1299      S1303   1.804       .  S
C1300      C1301   1.401   1_556  A
C1301      C1302   1.392       .  A
C1301      H1308   1.084       .  S
C1302      S1304   1.804       .  S
S1303      H1306   1.407       .  S
S1304      H1305   1.406       .  S
C1309      C1310   1.396       .  A
C1309      C1314   1.415   1_556  A
C1310      C1311   1.388       .  A
C1310      H1319   1.084       .  S
C1311      C1312   1.407       .  A
C1311      S1315   1.797       .  S
C1312      C1313   1.397   1_556  A
C1313      C1314   1.395       .  A
C1313      H1320   1.084       .  S
C1314      S1316   1.810       .  S
S1315      H1318   1.405       .  S
S1316      H1317   1.401       .  S
C1321      C1322   1.394   1_556  A
C1321      C1326   1.415       .  A
C1322      C1323   1.386       .  A
C1322      H1331   1.084       .  S
C1323      C1324   1.411   1_554  A
C1323      S1327   1.805       .  S
C1324      C1325   1.399       .  A
C1325      C1326   1.394       .  A
C1325      H1332   1.084       .  S
C1326      S1328   1.810       .  S
S1327      H1330   1.404       .  S
S1328      H1329   1.401       .  S
C1333      C1334   1.400       .  A
C1333      C1338   1.410   1_556  A
C1334      C1335   1.388       .  A
C1334      H1343   1.085       .  S
C1335      C1336   1.407       .  A
C1335      S1339   1.806       .  S
C1336      C1337   1.400   1_556  A
C1337      C1338   1.393       .  A
C1337      H1344   1.084       .  S
C1338      S1340   1.805       .  S
S1339      H1342   1.405       .  S
S1340      H1341   1.406       .  S
C1345      C1346   1.410       .  A
C1345      C1862   1.416   1_545  A
C1346      C1347   1.403       .  A
C1346      H1355   1.083       .  S
C1347      C1860   1.414       .  A
C1347      S1351   1.802       .  S
C1348      C1859   1.413       .  A
C1348      C1349   1.411       .  A
C1349      C1350   1.418       .  A
C1349      H1356   1.083       .  S
C1350      C1857   1.421       .  A
C1350      S1352   1.804       .  S
S1351      H1354   1.406       .  S
S1352      H1353   1.400       .  S
C1357      C1358   1.423       .  A
C1357      C1874   1.422       .  A
C1358      C1359   1.410       .  A
C1358      H1367   1.077       .  S
C1359      C1872   1.408       .  A
C1359      S1363   1.804       .  S
C1360      C1871   1.405       .  A
C1360      C1361   1.405   1_565  A
C1361      C1362   1.409       .  A
C1361      H1368   1.083       .  S
C1362      C1869   1.424   1_545  A
C1362      S1364   1.809       .  S
S1363      H1366   1.406       .  S
S1364      H1365   1.407       .  S
C1369      C1374   1.438       .  A
C1370      C1371   1.410       .  A
C1370      H1379   1.083       .  S
C1371      S1375   1.803       .  S
C1372      C1373   1.393   1_455  A
C1373      C1374   1.404       .  A
C1373      H1380   1.084       .  S
C1374      S1376   1.802       .  S
S1375      H1378   1.405       .  S
S1376      H1377   1.399       .  S
C1381      C1382   1.401       .  A
C1382      C1383   1.406       .  A
C1382      H1391   1.083       .  S
C1383      C1384   1.426       .  A
C1383      S1387   1.803   1_655  S
C1385      C1386   1.410       .  A
C1385      H1392   1.082       .  S
C1386      S1388   1.812       .  S
S1387      H1390   1.400   1_455  S
S1388      H1389   1.407       .  S
C1393      C1394   1.402       .  A
C1393      C1398   1.422       .  A
C1394      C1395   1.402       .  A
C1394      H1403   1.081       .  S
C1395      C1396   1.416       .  A
C1395      S1399   1.806       .  S
C1396      C1397   1.403       .  A
C1397      C1398   1.415       .  A
C1397      H1404   1.083       .  S
C1398      S1400   1.806       .  S
S1399      H1402   1.406       .  S
S1400      H1401   1.407       .  S
C1405      C1406   1.422       .  A
C1405      C1410   1.423       .  A
C1406      C1407   1.410       .  A
C1406      H1415   1.076       .  S
C1407      C1408   1.408       .  A
C1407      S1411   1.801       .  S
C1408      C1409   1.410       .  A
C1409      C1410   1.412       .  A
C1409      H1416   1.084       .  S
C1410      S1412   1.806       .  S
S1411      H1414   1.408       .  S
S1412      H1413   1.407       .  S
C1417      C1418   1.403       .  A
C1417      C1422   1.406       .  A
C1418      C1419   1.417       .  A
C1418      H1427   1.080       .  S
C1419      C1420   1.426       .  A
C1419      S1423   1.804       .  S
C1420      C1421   1.414       .  A
C1421      C1422   1.402       .  A
C1421      H1428   1.080       .  S
C1422      S1424   1.804       .  S
S1423      H1426   1.407       .  S
S1424      H1425   1.404       .  S
C1429      C1430   1.415       .  A
C1429      C1434   1.415       .  A
C1430      C1431   1.401       .  A
C1430      H1439   1.082       .  S
C1431      C1432   1.403       .  A
C1431      S1435   1.808       .  S
C1432      C1433   1.409       .  A
C1433      C1434   1.411       .  A
C1433      H1440   1.084       .  S
C1434      S1436   1.797       .  S
S1435      H1438   1.407       .  S
S1436      H1437   1.407       .  S
C1441      C1442   1.402       .  A
C1441      C1446   1.409       .  A
C1442      C1443   1.394       .  A
C1442      H1451   1.084       .  S
C1443      C1444   1.409       .  A
C1443      S1447   1.805       .  S
C1444      C1445   1.394       .  A
C1445      C1446   1.388       .  A
C1445      H1452   1.084       .  S
C1446      S1448   1.802       .  S
S1447      H1450   1.406       .  S
S1448      H1449   1.407       .  S
C1453      C1454   1.402       .  A
C1453      C1458   1.412       .  A
C1454      C1455   1.391       .  A
C1454      H1463   1.084       .  S
C1455      C1456   1.412       .  A
C1455      S1459   1.798       .  S
C1456      C1457   1.405       .  A
C1457      C1458   1.395       .  A
C1457      H1464   1.084       .  S
C1458      S1460   1.804       .  S
S1459      H1462   1.404       .  S
S1460      H1461   1.407       .  S
C1465      C1466   1.402       .  A
C1465      C1470   1.410       .  A
C1466      C1467   1.391       .  A
C1466      H1475   1.084       .  S
C1467      C1468   1.409       .  A
C1467      S1471   1.806       .  S
C1468      C1469   1.401       .  A
C1469      C1470   1.391       .  A
C1469      H1476   1.084       .  S
C1470      S1472   1.805       .  S
S1471      H1474   1.406       .  S
S1472      H1473   1.403       .  S
C1477      C1478   1.400       .  A
C1477      C1482   1.410       .  A
C1478      C1479   1.391       .  A
C1478      H1487   1.084       .  S
C1479      C1480   1.410       .  A
C1479      S1483   1.805       .  S
C1480      C1481   1.397       .  A
C1481      C1482   1.388       .  A
C1481      H1488   1.084       .  S
C1482      S1484   1.805       .  S
S1483      H1486   1.405       .  S
S1484      H1485   1.406       .  S
C1489      C1490   1.401       .  A
C1489      C1494   1.412       .  A
C1490      C1491   1.406       .  A
C1490      H1499   1.078       .  S
C1491      C1492   1.423       .  A
C1491      S1495   1.811       .  S
C1492      C1493   1.420       .  A
C1493      C1494   1.408       .  A
C1493      H1500   1.074       .  S
C1494      S1496   1.807       .  S
S1495      H1498   1.407       .  S
S1496      H1497   1.402       .  S
C1501      C1502   1.409       .  A
C1501      C1506   1.414       .  A
C1502      C1503   1.402       .  A
C1502      H1511   1.084       .  S
C1503      C1504   1.415       .  A
C1503      S1507   1.802       .  S
C1504      C1505   1.413       .  A
C1505      C1506   1.414       .  A
C1505      H1512   1.080       .  S
C1506      S1508   1.801       .  S
S1507      H1510   1.407       .  S
S1508      H1509   1.407       .  S
C1513      C1514   1.421       .  A
C1513      C1518   1.420       .  A
C1514      C1515   1.404       .  A
C1514      H1523   1.083       .  S
C1515      C1516   1.406       .  A
C1515      S1519   1.802       .  S
C1516      C1517   1.412       .  A
C1517      C1518   1.413       .  A
C1517      H1524   1.084       .  S
C1518      S1520   1.800       .  S
S1519      H1522   1.405       .  S
S1520      H1521   1.401       .  S
C1525      C1526   1.405       .  A
C1525      C1530   1.412       .  A
C1526      C1527   1.417       .  A
C1526      H1535   1.083       .  S
C1527      C1528   1.419       .  A
C1527      S1531   1.801       .  S
C1528      C1529   1.405       .  A
C1529      C1530   1.398       .  A
C1529      H1536   1.084       .  S
C1530      S1532   1.802       .  S
S1531      H1534   1.407       .  S
S1532      H1533   1.406       .  S
O1537     Zr1573   2.521       .  S
O1537      C1548   1.309       .  A
O1538     Zr1572   2.492       .  S
O1538      C1549   1.303       .  A
O1539     Zr1545   2.438       .  S
O1539      C1550   1.291       .  A
O1540     Zr1545   2.423       .  S
O1540      C1551   1.288       .  A
O1541     Zr1575   2.399       .  S
O1541      C1551   1.283       .  A
O1542     Zr1574   2.410       .  S
O1542      C1550   1.284       .  A
O1543     Zr1545   2.439       .  S
O1543      C1549   1.292       .  A
O1544     Zr1545   2.424       .  S
O1544      C1548   1.290       .  A
Zr1545     O1546   2.330       .  S
Zr1545     O1547   2.345       .  S
Zr1545     O1555   2.347       .  S
Zr1545     O1553   2.338       .  S
O1546     Zr1572   2.359       .  S
O1546     Zr1575   2.328       .  S
O1547     Zr1573   2.368       .  S
O1547     Zr1574   2.334       .  S
C1548      C2037   1.499       .  S
C1549      C1929   1.492       .  S
C1550      C1953   1.459       .  S
C1551      C1968   1.464       .  S
H1552      O1553   0.963       .  S
O1553     Zr1572   2.364       .  S
O1553     Zr1574   2.340       .  S
H1554      O1555   0.968       .  S
O1555     Zr1573   2.369       .  S
O1555     Zr1575   2.329       .  S
O1556     Zr1572   2.521       .  S
O1556      C1579   1.308       .  A
O1557     Zr1573   2.521       .  S
O1557      C1580   1.308       .  A
O1558     Zr1574   2.403       .  S
O1558      C1581   1.285       .  A
O1559     Zr1575   2.422       .  S
O1559      C1582   1.289       .  A
O1560     Zr1575   2.426       .  S
O1560      C1583   1.289       .  A
O1561     Zr1574   2.412       .  S
O1561      C1584   1.287       .  A
O1562     Zr1576   2.419       .  S
O1562      C1585   1.287       .  A
O1563     Zr1576   2.427       .  S
O1563      C1586   1.289       .  A
O1564     Zr1574   2.414       .  S
O1564      C1585   1.286       .  A
O1565     Zr1575   2.397       .  S
O1565      C1586   1.282       .  A
O1566     Zr1572   2.517       .  S
O1566      C1581   1.308       .  A
O1567     Zr1573   2.516       .  S
O1567      C1584   1.308       .  A
O1568     Zr1573   2.499       .  S
O1568      C1583   1.304       .  A
O1569     Zr1572   2.503       .  S
O1569      C1582   1.305       .  A
O1570     Zr1576   2.406       .  S
O1570      C1579   1.287       .  A
O1571     Zr1576   2.399       .  S
O1571      C1580   1.286       .  A
Zr1572     O1578   2.350       .  S
Zr1572     O1590   2.349       .  S
Zr1573     O1577   2.370       .  S
Zr1573     O1588   2.361       .  S
Zr1574     O1578   2.332       .  S
Zr1574     O1588   2.330       .  S
Zr1575     O1577   2.335       .  S
Zr1575     O1590   2.335       .  S
Zr1576     O1577   2.337       .  S
Zr1576     O1578   2.330       .  S
Zr1576     O1590   2.325       .  S
Zr1576     O1588   2.342       .  S
C1579      C1941   1.521       .  S
C1580      C2025   1.517       .  S
C1581      C1908   1.500       .  S
C1582      C1920   1.495       .  S
C1583      C2001   1.491       .  S
C1584      C2013   1.503       .  S
C1585      C1989   1.458       .  S
C1586      C1977   1.455       .  S
H1587      O1588   0.966       .  S
H1589      O1590   0.965       .  S
N1591      H1623   1.042   1_545  S
N1591      C1595   1.348   1_545  A
N1592      C1600   1.343       .  A
N1593      H1624   1.043       .  S
N1593      C1597   1.347       .  A
N1594      C1602   1.342       .  A
C1595      C1603   1.386       .  A
C1595      C1611   1.402       .  A
C1596      C1612   1.407       .  A
C1596      C1604   1.388       .  A
C1597      C1605   1.387       .  A
C1597      C1614   1.407       .  A
C1598      C1613   1.405       .  A
C1598      C1606   1.388       .  A
C1599      C1611   1.403       .  A
C1599      C1607   1.385       .  A
C1600      C1614   1.401       .  A
C1600      C1608   1.386       .  A
C1601      C1609   1.385   1_655  A
C1601      C1612   1.402       .  A
C1602      C1610   1.387       .  A
C1602      C1613   1.404       .  A
C1603      H1615   1.082       .  S
C1604      H1616   1.082       .  S
C1605      H1617   1.082       .  S
C1606      H1618   1.082       .  S
C1607      H1619   1.081       .  S
C1608      H1620   1.083       .  S
C1609      H1621   1.082   1_455  S
C1610      H1622   1.080       .  S
C1611      C1992   1.471       .  S
C1612      C1956   1.469       .  S
C1613      C1965   1.473       .  S
C1614      C1980   1.472       .  S
O1625      C1636   1.314       .  A
O1626     Zr1660   2.501       .  S
O1626      C1637   1.305       .  A
O1627      C1638   1.285       .  A
O1628     Zr1633   2.426       .  S
O1628      C1639   1.288   1_556  A
O1629     Zr1663   2.399   1_564  S
O1629      C1639   1.282       .  A
O1630     Zr1662   2.412       .  S
O1630      C1638   1.285       .  A
O1631     Zr1633   2.421   1_554  S
O1631      C1637   1.290       .  A
O1632     Zr1633   2.406       .  S
O1632      C1636   1.283       .  A
Zr1633     O1634   2.325   1_556  S
Zr1633     O1643   2.336       .  S
O1634     Zr1660   2.356       .  S
O1634     Zr1663   2.326   1_564  S
O1635     Zr1662   2.332       .  S
C1636      C1893   1.526       .  S
C1637      C1785   1.509       .  S
C1638      C1812   1.447   1_556  S
C1639      C1824   1.451       .  S
H1640      O1641   0.966       .  S
O1641     Zr1662   2.330   1_554  S
H1642      O1643   0.965       .  S
O1643     Zr1663   2.335   1_565  S
O1644      C1667   1.306       .  A
O1645     Zr1661   2.523       .  S
O1645      C1668   1.310       .  A
O1646     Zr1662   2.405   1_554  S
O1646      C1669   1.286       .  A
O1647     Zr1663   2.407   1_554  S
O1647      C1670   1.287       .  A
O1648      C1671   1.291       .  A
O1649      C1672   1.289       .  A
O1650      C1673   1.286       .  A
O1651     Zr1664   2.401       .  S
O1651      C1674   1.282       .  A
O1652      C1673   1.284       .  A
O1653      C1674   1.287       .  A
O1654      C1669   1.307       .  A
O1655      C1672   1.305       .  A
O1656     Zr1661   2.507       .  S
O1656      C1671   1.305       .  A
O1657     Zr1660   2.500   1_545  S
O1657      C1670   1.304       .  A
O1658     Zr1664   2.409   1_554  S
O1658      C1667   1.287       .  A
O1659     Zr1664   2.406       .  S
O1659      C1668   1.284       .  A
Zr1661     O1665   2.361       .  S
Zr1664     O1665   2.335       .  S
Zr1664     O1678   2.331   1_556  S
C1667      C1800   1.498       .  S
C1668      C1881   1.514       .  S
C1669      C1761   1.494       .  S
C1670      C1773   1.494       .  S
C1671      C1857   1.507       .  S
C1672      C1872   1.494       .  S
C1673      C1845   1.449   1_556  S
C1674      C1833   1.444   1_556  S
H1675      O1676   0.965       .  S
H1677      O1678   0.966       .  S
N1679      H1711   1.033       .  S
N1679      C1684   1.349       .  A
N1679      C1683   1.348       .  A
N1680      C1687   1.348       .  A
N1680      C1688   1.348       .  A
N1681      H1712   1.035       .  S
N1681      C1686   1.347       .  A
N1681      C1685   1.347       .  A
N1682      C1689   1.346       .  A
N1682      C1690   1.347       .  A
C1683      C1691   1.387       .  A
C1683      C1699   1.410       .  A
C1684      C1700   1.411       .  A
C1684      C1692   1.388       .  A
C1685      C1693   1.387       .  A
C1685      C1702   1.405       .  A
C1686      C1701   1.407       .  A
C1686      C1694   1.388       .  A
C1687      C1699   1.407       .  A
C1687      C1695   1.386       .  A
C1688      C1702   1.407       .  A
C1688      C1696   1.386       .  A
C1689      C1697   1.389       .  A
C1689      C1700   1.410       .  A
C1690      C1698   1.385       .  A
C1690      C1701   1.404       .  A
C1691      C1692   1.371       .  A
C1691      H1703   1.083       .  S
C1692      H1704   1.082       .  S
C1693      C1694   1.371       .  A
C1693      H1705   1.083       .  S
C1694      H1706   1.083       .  S
C1695      C1696   1.369       .  A
C1695      H1707   1.082       .  S
C1696      H1708   1.082       .  S
C1697      C1698   1.366       .  A
C1697      H1709   1.082       .  S
C1698      H1710   1.083   1_554  S
C1699      C1821   1.471       .  S
C1700      C1836   1.470       .  S
C1701      C1848   1.465       .  S
C1702      C1809   1.468       .  S
C1713      C1714   1.525       .  S
C1713      C1717   1.541       .  S
C1713      C2004   1.555       .  S
C1714      H1721   1.086       .  S
C1715      C1716   1.561   1_455  S
C1715      C1797   1.499       .  S
C1716      C1720   1.542       .  S
C1716      C1718   1.561   1_655  S
C1716      H1722   1.108       .  S
C1717      H1723   1.078       .  S
C1718      C1788   1.518   1_455  S
C1719      H1724   1.085       .  S
C1719      C1720   1.381   1_455  D
C1720      C2016   1.514       .  S
C1725      C1726   1.529       .  S
C1725      C1731   1.552       .  S
C1725      C1764   1.557       .  S
C1726      H1733   1.087       .  S
C1726      C1727   1.360       .  D
C1727      C1728   1.556       .  S
C1727      C2028   1.498       .  S
C1728      C1732   1.548       .  S
C1728      H1734   1.109       .  S
C1729      H1735   1.083       .  S
C1729      C1730   1.364       .  D
C1730      C2040   1.508       .  S
C1731      H1736   1.085       .  S
C1731      C1732   1.380       .  D
C1732      C1776   1.506       .  S
C1737      C1738   1.544       .  S
C1737      C1741   1.537       .  S
C1737      C1917   1.572       .  S
C1738      H1745   1.077       .  S
C1739      C1740   1.556   1_455  S
C1739      C1896   1.515   1_455  S
C1740      C1744   1.541       .  S
C1740      C1742   1.561   1_655  S
C1740      H1746   1.109       .  S
C1741      H1747   1.086       .  S
C1742      C1884   1.506   1_455  S
C1743      H1748   1.085       .  S
C1743      C1744   1.385   1_455  D
C1744      C1905   1.510       .  S
C1749      C1755   1.553       .  S
C1749      C1753   1.540       .  S
C1749      C1869   1.564       .  S
C1750      H1757   1.085       .  S
C1750      C1751   1.371       .  D
C1751      C1932   1.525       .  S
C1752      C1756   1.546       .  S
C1752      C1754   1.552   1_545  S
C1752      H1758   1.108       .  S
C1753      H1759   1.080       .  S
C1753      C1754   1.357       .  D
C1754      C1944   1.499       .  S
C1755      H1760   1.085       .  S
C1755      C1756   1.380   1_565  D
C1756      C1860   1.504       .  S
C1761      C1762   1.410       .  A
C1762      C1763   1.410       .  A
C1762      H1771   1.083       .  S
C1763      C1764   1.423       .  A
C1763      S1767   1.812       .  S
C1765      C1766   1.408       .  A
C1765      H1772   1.078       .  S
C1766      S1768   1.804       .  S
S1767      H1770   1.407       .  S
S1768      H1769   1.404       .  S
C1773      C1774   1.404   1_545  A
C1774      C1775   1.411       .  A
C1774      H1783   1.084       .  S
C1775      C1776   1.420       .  A
C1775      S1779   1.796       .  S
C1777      C1778   1.400       .  A
C1777      H1784   1.084       .  S
C1778      S1780   1.802       .  S
S1779      H1782   1.405       .  S
S1780      H1781   1.406       .  S
C1785      C1786   1.415       .  A
C1786      C1787   1.407       .  A
C1786      H1795   1.084       .  S
C1787      C1788   1.416       .  A
C1787      S1791   1.800       .  S
C1789      C1790   1.405       .  A
C1789      H1796   1.083       .  S
C1790      S1792   1.802       .  S
S1791      H1794   1.400       .  S
S1792      H1793   1.408       .  S
C1797      C1798   1.410   1_455  A
C1798      C1799   1.415       .  A
C1798      H1807   1.080       .  S
C1799      C1800   1.417       .  A
C1799      S1803   1.802       .  S
C1801      C1802   1.399       .  A
C1801      H1808   1.085       .  S
C1802      S1804   1.808       .  S
S1803      H1806   1.405       .  S
S1804      H1805   1.404       .  S
C1809      C1810   1.402   1_554  A
C1809      C1814   1.407       .  A
C1810      C1811   1.394       .  A
C1810      H1819   1.084       .  S
C1811      C1812   1.409   1_556  A
C1811      S1815   1.810       .  S
C1812      C1813   1.401       .  A
C1813      C1814   1.391       .  A
C1813      H1820   1.085       .  S
C1814      S1816   1.806       .  S
S1815      H1818   1.402       .  S
S1816      H1817   1.404       .  S
C1821      C1822   1.402   1_554  A
C1821      C1826   1.410       .  A
C1822      C1823   1.391       .  A
C1822      H1831   1.084       .  S
C1823      C1824   1.405   1_556  A
C1823      S1827   1.805       .  S
C1824      C1825   1.402       .  A
C1825      C1826   1.394       .  A
C1825      H1832   1.085       .  S
C1826      S1828   1.804       .  S
S1827      H1830   1.406       .  S
S1828      H1829   1.406       .  S
C1833      C1834   1.399       .  A
C1833      C1838   1.408   1_554  A
C1834      C1835   1.389       .  A
C1834      H1843   1.084       .  S
C1835      C1836   1.409       .  A
C1835      S1839   1.806       .  S
C1836      C1837   1.404   1_554  A
C1837      C1838   1.392       .  A
C1837      H1844   1.084       .  S
C1838      S1840   1.808       .  S
S1839      H1842   1.405       .  S
S1840      H1841   1.403       .  S
C1845      C1846   1.399   1_554  A
C1845      C1850   1.409       .  A
C1846      C1847   1.392       .  A
C1846      H1855   1.084       .  S
C1847      C1848   1.410   1_556  A
C1847      S1851   1.805       .  S
C1848      C1849   1.397       .  A
C1849      C1850   1.388       .  A
C1849      H1856   1.084       .  S
C1850      S1852   1.801       .  S
S1851      H1854   1.405       .  S
S1852      H1853   1.406       .  S
C1857      C1858   1.409       .  A
C1858      C1859   1.402       .  A
C1858      H1867   1.082       .  S
C1859      S1863   1.802       .  S
C1860      C1861   1.410   1_545  A
C1861      C1862   1.415       .  A
C1861      H1868   1.084       .  S
C1862      S1864   1.802       .  S
S1863      H1866   1.407       .  S
S1864      H1865   1.405       .  S
C1869      C1870   1.425       .  A
C1870      C1871   1.407       .  A
C1870      H1879   1.073       .  S
C1871      S1875   1.806       .  S
C1872      C1873   1.406       .  A
C1873      C1874   1.409       .  A
C1873      H1880   1.083       .  S
C1874      S1876   1.808       .  S
S1875      H1878   1.406       .  S
S1876      H1877   1.407       .  S
C1881      C1886   1.434       .  A
C1882      C1883   1.410       .  A
C1882      H1891   1.083       .  S
C1883      S1887   1.798       .  S
C1884      C1885   1.395       .  A
C1885      C1886   1.405       .  A
C1885      H1892   1.084       .  S
C1886      S1888   1.803       .  S
S1887      H1890   1.406       .  S
S1888      H1889   1.404       .  S
C1893      C1894   1.406       .  A
C1894      C1895   1.412       .  A
C1894      H1903   1.083       .  S
C1895      C1896   1.426       .  A
C1895      S1899   1.804   1_655  S
C1897      C1898   1.413       .  A
C1897      H1904   1.082       .  S
C1898      S1900   1.812       .  S
S1899      H1902   1.404   1_455  S
S1900      H1901   1.406       .  S
C1905      C1906   1.401       .  A
C1905      C1910   1.423       .  A
C1906      C1907   1.404       .  A
C1906      H1915   1.081       .  S
C1907      C1908   1.421       .  A
C1907      S1911   1.807       .  S
C1908      C1909   1.404       .  A
C1909      C1910   1.417       .  A
C1909      H1916   1.083       .  S
C1910      S1912   1.804       .  S
S1911      H1914   1.405       .  S
S1912      H1913   1.407       .  S
C1917      C1918   1.425       .  A
C1917      C1922   1.424       .  A
C1918      C1919   1.410       .  A
C1918      H1927   1.072       .  S
C1919      C1920   1.407       .  A
C1919      S1923   1.804       .  S
C1920      C1921   1.403       .  A
C1921      C1922   1.411       .  A
C1921      H1928   1.084       .  S
C1922      S1924   1.800       .  S
S1923      H1926   1.408       .  S
S1924      H1925   1.407       .  S
C1929      C1930   1.401       .  A
C1929      C1934   1.409       .  A
C1930      C1931   1.413       .  A
C1930      H1939   1.077       .  S
C1931      C1932   1.423       .  A
C1931      S1935   1.805       .  S
C1932      C1933   1.418       .  A
C1933      C1934   1.406       .  A
C1933      H1940   1.081       .  S
C1934      S1936   1.806       .  S
S1935      H1938   1.406       .  S
S1936      H1937   1.403       .  S
C1941      C1942   1.423       .  A
C1941      C1946   1.419       .  A
C1942      C1943   1.409       .  A
C1942      H1951   1.081       .  S
C1943      C1944   1.403       .  A
C1943      S1947   1.807       .  S
C1944      C1945   1.409       .  A
C1945      C1946   1.413       .  A
C1945      H1952   1.084       .  S
C1946      S1948   1.798       .  S
S1947      H1950   1.407       .  S
S1948      H1949   1.407       .  S
C1953      C1954   1.400       .  A
C1953      C1958   1.409       .  A
C1954      C1955   1.397       .  A
C1954      H1963   1.084       .  S
C1955      C1956   1.412       .  A
C1955      S1959   1.803       .  S
C1956      C1957   1.397       .  A
C1957      C1958   1.392       .  A
C1957      H1964   1.084       .  S
C1958      S1960   1.795       .  S
S1959      H1962   1.404       .  S
S1960      H1961   1.405       .  S
C1965      C1966   1.400       .  A
C1965      C1970   1.412       .  A
C1966      C1967   1.386       .  A
C1966      H1975   1.085       .  S
C1967      C1968   1.412       .  A
C1967      S1971   1.796       .  S
C1968      C1969   1.401       .  A
C1969      C1970   1.391       .  A
C1969      H1976   1.084       .  S
C1970      S1972   1.805       .  S
S1971      H1974   1.403       .  S
S1972      H1973   1.406       .  S
C1977      C1978   1.403       .  A
C1977      C1982   1.411       .  A
C1978      C1979   1.390       .  A
C1978      H1987   1.085       .  S
C1979      C1980   1.410       .  A
C1979      S1983   1.807       .  S
C1980      C1981   1.403       .  A
C1981      C1982   1.392       .  A
C1981      H1988   1.084       .  S
C1982      S1984   1.806       .  S
S1983      H1986   1.406       .  S
S1984      H1985   1.406       .  S
C1989      C1990   1.400       .  A
C1989      C1994   1.412       .  A
C1990      C1991   1.392       .  A
C1990      H1999   1.084       .  S
C1991      C1992   1.410       .  A
C1991      S1995   1.803       .  S
C1992      C1993   1.400       .  A
C1993      C1994   1.394       .  A
C1993      H2000   1.084       .  S
C1994      S1996   1.802       .  S
S1995      H1998   1.405       .  S
S1996      H1997   1.407       .  S
C2001      C2002   1.402       .  A
C2001      C2006   1.410       .  A
C2002      C2003   1.407       .  A
C2002      H2011   1.075       .  S
C2003      C2004   1.422       .  A
C2003      S2007   1.812       .  S
C2004      C2005   1.418       .  A
C2005      C2006   1.406       .  A
C2005      H2012   1.074       .  S
C2006      S2008   1.804       .  S
S2007      H2010   1.406       .  S
S2008      H2009   1.403       .  S
C2013      C2014   1.410       .  A
C2013      C2018   1.415       .  A
C2014      C2015   1.405       .  A
C2014      H2023   1.084       .  S
C2015      C2016   1.416       .  A
C2015      S2019   1.803       .  S
C2016      C2017   1.413       .  A
C2017      C2018   1.416       .  A
C2017      H2024   1.080       .  S
C2018      S2020   1.802       .  S
S2019      H2022   1.406       .  S
S2020      H2021   1.407       .  S
C2025      C2026   1.423       .  A
C2025      C2030   1.419       .  A
C2026      C2027   1.403       .  A
C2026      H2035   1.083       .  S
C2027      C2028   1.404       .  A
C2027      S2031   1.802       .  S
C2028      C2029   1.411       .  A
C2029      C2030   1.411       .  A
C2029      H2036   1.084       .  S
C2030      S2032   1.800       .  S
S2031      H2034   1.407       .  S
S2032      H2033   1.401       .  S
C2037      C2038   1.405       .  A
C2037      C2042   1.418       .  A
C2038      C2039   1.419       .  A
C2038      H2047   1.083       .  S
C2039      C2040   1.419       .  A
C2039      S2043   1.797       .  S
C2040      C2041   1.403       .  A
C2041      C2042   1.401       .  A
C2041      H2048   1.084       .  S
C2042      S2044   1.800       .  S
S2043      H2046   1.407       .  S
S2044      H2045   1.405       .  S
