geometry optimzed in LAMMPS
_audit_creation_date              2020-11-30 
_audit_creation_method            'lammps2cif' 
_symmetry_space_group_name_H-M    'P1' 
_symmetry_Int_Tables_number       1 
_symmetry_cell_setting            triclinic 
loop_ 
_symmetry_equiv_pos_as_xyz 
  x,y,z 
_cell_length_a                    84.39002225 
_cell_length_b                    84.39491930858459 
_cell_length_c                    84.38207210779554 
_cell_angle_alpha                 89.97605023222744 
_cell_angle_beta                  90.07996416161372 
_cell_angle_gamma                 90.01628420342851 
loop_ 
_atom_site_label 
_atom_site_type_symbol 
_atom_site_fract_x 
_atom_site_fract_y 
_atom_site_fract_z 
_atom_site_charge 
N1          N  0.72322423  0.10291777  0.67610040    -0.27900
N2          N  0.71549776  0.11627935  0.67871847    -0.35700
C3          C  0.72296544  0.12820901  0.67127610     0.00500
C4          C  0.73618418  0.12211659  0.66379659     0.06500
C5          C  0.73603521  0.10604742  0.66713832    -0.06600
H6          H  0.71933819  0.14049511  0.67174364     0.07200
H7          H  0.74451845  0.09727170  0.66323739     0.08400
Cu8        Cu  0.69602061  0.11794408  0.69344525     0.44200
Cu9        Cu  0.71537010  0.08113362  0.68445722     0.42000
Cu10       Cu  0.67884131  0.08166094  0.70790386     0.43900
N11         N  0.67824424  0.11724277  0.71026808    -0.35300
N12         N  0.67164400  0.10401854  0.71542824    -0.29500
C13         C  0.66106245  0.10765099  0.72679295    -0.05600
C14         C  0.66114493  0.12395425  0.72900412     0.06600
C15         C  0.67220751  0.12959500  0.71827894     0.00400
H16         H  0.65436079  0.09898607  0.73344479     0.08100
H17         H  0.67585231  0.14176079  0.71655787     0.07100
N18         N  0.69013766  0.06109120  0.70029747    -0.36700
N19         N  0.70349351  0.06096376  0.69212660    -0.28900
C20         C  0.70770113  0.04586557  0.68931713    -0.04100
C21         C  0.69648298  0.03586710  0.69602280     0.04500
C22         C  0.68551885  0.04604241  0.70288574     0.02600
H23         H  0.71813745  0.04253399  0.68270115     0.07700
H24         H  0.67495102  0.04283969  0.70936553     0.06500
N25         N  0.61480380  0.20680747  0.84685760    -0.27900
N26         N  0.62727306  0.20396954  0.83782284    -0.35700
C27         C  0.63955769  0.21272631  0.84295465     0.00500
C28         C  0.63468552  0.22156037  0.85590016     0.06500
C29         C  0.61890374  0.21741940  0.85805817    -0.06600
H30         H  0.65114143  0.21274193  0.83748937     0.07200
H31         H  0.61080025  0.22218858  0.86675312     0.08400
Cu32       Cu  0.62711273  0.18903160  0.81832520     0.44200
Cu33       Cu  0.59243207  0.19710559  0.84266604     0.42000
Cu34       Cu  0.58979921  0.17169872  0.80780400     0.43900
N35         N  0.62418406  0.17416359  0.79899445    -0.35300
N36         N  0.61048837  0.16759561  0.79519354    -0.29500
C37         C  0.61254841  0.15828443  0.78241382    -0.05600
C38         C  0.62831895  0.15910377  0.77788862     0.06600
C39         C  0.63530735  0.16932601  0.78868527     0.00400
H40         H  0.60323350  0.15145751  0.77683914     0.08100
H41         H  0.64765907  0.17270709  0.78928050     0.07100
N42         N  0.57053640  0.17797146  0.82172193    -0.36700
N43         N  0.57132632  0.18720933  0.83434868    -0.28900
C44         C  0.55653885  0.18958822  0.83987960    -0.04100
C45         C  0.54590262  0.18143741  0.83027509     0.04500
C46         C  0.55531858  0.17420069  0.81893248     0.02600
H47         H  0.55376594  0.19699764  0.84995213     0.07700
H48         H  0.55141815  0.16720156  0.80893174     0.06500
N49         N  0.84881824  0.20906750  0.61352241    -0.27900
N50         N  0.84286327  0.20305179  0.62669012    -0.35700
C51         C  0.84970673  0.21015431  0.63920272     0.00500
C52         C  0.86056292  0.22117711  0.63367670     0.06500
C53         C  0.85971269  0.22006919  0.61730632    -0.06600
H54         H  0.84662820  0.20774017  0.65140368     0.07200
H55         H  0.86589599  0.22731606  0.60873560     0.08400
Cu56       Cu  0.82456039  0.18667735  0.62717430     0.44200
Cu57       Cu  0.84045229  0.20352909  0.59109939     0.42000
Cu58       Cu  0.80357688  0.18131677  0.59037593     0.43900
N59         N  0.80430569  0.17296068  0.62500070    -0.35300
N60         N  0.79606765  0.17180151  0.61171534    -0.29500
C61         C  0.78298744  0.16311040  0.61443583    -0.05600
C62         C  0.78316885  0.15837896  0.63012691     0.06600
C63         C  0.79686603  0.16477356  0.63646429     0.00400
H64         H  0.77414677  0.16023974  0.60559258     0.08100
H65         H  0.80089378  0.16392225  0.64861308     0.07100
N66         N  0.81509902  0.18942029  0.57027896    -0.36700
N67         N  0.82857972  0.19738951  0.57048133    -0.28900
C68         C  0.83309493  0.20030553  0.55548058    -0.04100
C69         C  0.82196902  0.19374707  0.54530777     0.04500
C70         C  0.81072456  0.18696991  0.55516778     0.02600
H71         H  0.84389183  0.20641805  0.55227805     0.07700
H72         H  0.80014603  0.18061978  0.55169225     0.06500
N73         N  0.67935697  0.28545019  0.90900089    -0.27900
N74         N  0.68683151  0.28921744  0.89578749    -0.35700
C75         C  0.68184744  0.27959596  0.88408973     0.00500
C76         C  0.67061898  0.26922736  0.89019969     0.06500
C77         C  0.66940237  0.27334690  0.90607950    -0.06600
H78         H  0.68596010  0.28032975  0.87198206     0.07200
H79         H  0.66186848  0.26798247  0.91493885     0.08400
Cu80       Cu  0.70330469  0.30745399  0.89437373     0.44200
Cu81       Cu  0.68296669  0.29716646  0.93030374     0.42000
Cu82       Cu  0.71176029  0.32949574  0.93023944     0.43900
N83         N  0.71960888  0.32585282  0.89566460    -0.35300
N84         N  0.72277983  0.33396757  0.90867737    -0.29500
C85         C  0.73394896  0.34489657  0.90538677    -0.05600
C86         C  0.73805353  0.34358014  0.88950410     0.06600
C87         C  0.72864637  0.33135909  0.88378827     0.00400
H88         H  0.73882396  0.35304005  0.91400259     0.08100
H89         H  0.72824712  0.32678201  0.87183085     0.07100
N90         N  0.69925106  0.32215574  0.95013569    -0.36700
N91         N  0.68884402  0.31044947  0.95013715    -0.28900
C92         C  0.68352809  0.30823438  0.96498310    -0.04100
C93         C  0.69096592  0.31903339  0.97491810     0.04500
C94         C  0.70081651  0.32769363  0.96499419     0.02600
H95         H  0.67513230  0.29913177  0.96825672     0.07700
H96         H  0.70901276  0.33696012  0.96833186     0.06500
N97         N  0.91252644  0.28598280  0.67799084    -0.27900
N98         N  0.89979688  0.28781872  0.68689275    -0.35700
C99         C  0.88856905  0.27758797  0.68211124     0.00500
C100        C  0.89447073  0.26885763  0.66952402     0.06500
C101        C  0.90970925  0.27456775  0.66722589    -0.06600
H102        H  0.87690554  0.27675161  0.68734008     0.07200
H103        H  0.91826104  0.27055696  0.65857836     0.08400
Cu104      Cu  0.89813817  0.30433256  0.70493162     0.44200
Cu105      Cu  0.93333024  0.29859866  0.68150792     0.42000
Cu106      Cu  0.93328621  0.32741380  0.71350548     0.43900
N107        N  0.89875847  0.32268922  0.72116828    -0.35300
N108        N  0.91150541  0.33124862  0.72423331    -0.29500
C109        C  0.90775287  0.34250666  0.73486350    -0.05600
C110        C  0.89183548  0.34097614  0.73870396     0.06600
C111        C  0.88657390  0.32823144  0.72975576     0.00400
H112        H  0.91607503  0.35110927  0.73944526     0.08100
H113        H  0.87470812  0.32342528  0.72924108     0.07100
N114        N  0.95333583  0.32121838  0.70069849    -0.36700
N115        N  0.95328646  0.31090621  0.68892139    -0.28900
C116        C  0.96816339  0.30913322  0.68353021    -0.04100
C117        C  0.97817033  0.31875659  0.69235894     0.04500
C118        C  0.96825798  0.32626444  0.70312243     0.02600
H119        H  0.97144054  0.30097723  0.67421923     0.07700
H120        H  0.97158278  0.33460486  0.71226092     0.06500
N121        N  0.79952412  0.39887858  0.84386018    -0.27900
N122        N  0.80264728  0.38584548  0.83578738    -0.35700
C123        C  0.79351343  0.37400531  0.84121272     0.00500
C124        C  0.78413405  0.37975117  0.85339937     0.06500
C125        C  0.78831792  0.39561971  0.85475696    -0.06600
H126        H  0.79393626  0.36201187  0.83673010     0.07200
H127        H  0.78347970  0.40422326  0.86291983     0.08400
Cu128      Cu  0.81960505  0.38438919  0.81813626     0.44200
Cu129      Cu  0.81073799  0.42033963  0.83915373     0.42000
Cu130      Cu  0.84235815  0.41927167  0.80931409     0.43900
N131        N  0.83797815  0.38480372  0.80190556    -0.35300
N132        N  0.84658622  0.39750738  0.79884989    -0.29500
C133        C  0.85752768  0.39385151  0.78786478    -0.05600
C134        C  0.85565815  0.37805435  0.78372295     0.06600
C135        C  0.84314525  0.37273203  0.79293240     0.00400
H136        H  0.86596514  0.40220397  0.78304470     0.08100
H137        H  0.83815379  0.36093391  0.79321881     0.07100
N138        N  0.83439880  0.43971434  0.82027538    -0.36700
N139        N  0.82303100  0.44013035  0.83103448    -0.28900
C140        C  0.82039047  0.45529435  0.83512225    -0.04100
C141        C  0.83054173  0.46495388  0.82650755     0.04500
C142        C  0.83924986  0.45457782  0.81722689     0.02600
H143        H  0.81137903  0.45896188  0.84344093     0.07700
H144        H  0.84833071  0.45752517  0.80869408     0.06500
N145        N  0.72530769  0.66753124  0.90373992    -0.27900
N146        N  0.71963960  0.67308545  0.89022934    -0.35700
C147        C  0.72755106  0.66646295  0.87813273     0.00500
C148        C  0.73871005  0.65612569  0.88427700     0.06500
C149        C  0.73691685  0.65707690  0.90057512    -0.06600
H150        H  0.72524980  0.66897138  0.86577008     0.07200
H151        H  0.74376425  0.65091751  0.90950173     0.08400
Cu152      Cu  0.70155452  0.68951450  0.88859995     0.44200
Cu153      Cu  0.71726513  0.67488899  0.92577403     0.42000
Cu154      Cu  0.68566968  0.70443995  0.92505652     0.43900
N155        N  0.68409557  0.70665087  0.88956422    -0.35300
N156        N  0.67822497  0.71224188  0.90293302    -0.29500
C157        C  0.66763868  0.72367323  0.89953020    -0.05600
C158        C  0.66684437  0.72541414  0.88317894     0.06600
C159        C  0.67745436  0.71433886  0.87730257     0.00400
H160        H  0.66136655  0.73049472  0.90836723     0.08100
H161        H  0.68035141  0.71208567  0.86503232     0.07100
N162        N  0.69540705  0.69504122  0.94561968    -0.36700
N163        N  0.70688626  0.68439684  0.94593416    -0.28900
C164        C  0.71041072  0.68099870  0.96111296    -0.04100
C165        C  0.70067177  0.68993054  0.97090613     0.04500
C166        C  0.69132404  0.69867935  0.96056544     0.02600
H167        H  0.71949730  0.67269018  0.96465752     0.07700
H168        H  0.68215156  0.70709065  0.96356346     0.06500
N169        N  0.72235560  0.90050293  0.67188960    -0.27900
N170        N  0.71759503  0.88688571  0.67794430    -0.35700
C171        C  0.72614314  0.87506658  0.67160681     0.00500
C172        C  0.73692585  0.88146521  0.66097155     0.06500
C173        C  0.73409889  0.89768772  0.66145905    -0.06600
H174        H  0.72454807  0.86272014  0.67462385     0.07200
H175        H  0.74030170  0.90684037  0.65498617     0.08400
Cu176      Cu  0.69990329  0.88493265  0.69480967     0.44200
Cu177      Cu  0.71278913  0.92212012  0.67886474     0.42000
Cu178      Cu  0.68043737  0.92081073  0.70782509     0.43900
N179        N  0.68191385  0.88533747  0.71146475    -0.35300
N180        N  0.67455346  0.89833953  0.71611815    -0.29500
C181        C  0.66366827  0.89443075  0.72710497    -0.05600
C182        C  0.66426267  0.87816204  0.72955117     0.06600
C183        C  0.67599579  0.87285576  0.71936685     0.00400
H184        H  0.65618292  0.90289809  0.73312819     0.08100
H185        H  0.68002668  0.86080566  0.71775081     0.07100
N186        N  0.69007287  0.94163281  0.69875333    -0.36700
N187        N  0.70185012  0.94203098  0.68843598    -0.28900
C188        C  0.70564621  0.95721738  0.68548726    -0.04100
C189        C  0.69580472  0.96696465  0.69432980     0.04500
C190        C  0.68605291  0.95659265  0.70257645     0.02600
H191        H  0.71492481  0.96081483  0.67742964     0.07700
H192        H  0.67689635  0.95962316  0.71099846     0.06500
N193        N  0.90522824  0.71070990  0.66923209    -0.27900
N194        N  0.89187334  0.70561947  0.67561344    -0.35700
C195        C  0.87970851  0.71396942  0.66957495     0.00500
C196        C  0.88565144  0.72488161  0.65880824     0.06500
C197        C  0.90190486  0.72239858  0.65890692    -0.06600
H198        H  0.86745314  0.71219366  0.67285736     0.07200
H199        H  0.91076341  0.72885532  0.65227796     0.08400
Cu200      Cu  0.89082928  0.68787949  0.69258664     0.44200
Cu201      Cu  0.92744688  0.70202754  0.67539236     0.42000
Cu202      Cu  0.92808043  0.67085634  0.70512378     0.43900
N203        N  0.89276451  0.67039181  0.70973405    -0.35300
N204        N  0.90632619  0.66397863  0.71423107    -0.29500
C205        C  0.90347146  0.65330113  0.72573264    -0.05600
C206        C  0.88731211  0.65305921  0.72869756     0.06600
C207        C  0.88094100  0.66405887  0.71828843     0.00400
H208        H  0.91256700  0.64660950  0.73181033     0.08100
H209        H  0.86861822  0.66734512  0.71703123     0.07100
N210        N  0.94825101  0.68057487  0.69500195    -0.36700
N211        N  0.94812225  0.69188615  0.68416903    -0.28900
C212        C  0.96317496  0.69564015  0.68044581    -0.04100
C213        C  0.97331271  0.68626221  0.68941329     0.04500
C214        C  0.96333381  0.67685826  0.69847799     0.02600
H215        H  0.96643037  0.70476493  0.67205886     0.07700
H216        H  0.96668646  0.66794459  0.70705220     0.06500
N217        N  0.84645936  0.59990877  0.79478846    -0.27900
N218        N  0.83809768  0.61282002  0.79763036    -0.35700
C219        C  0.84250736  0.62425251  0.78749022     0.00500
C220        C  0.85428154  0.61830725  0.77773328     0.06500
C221        C  0.85650114  0.60280873  0.78275647    -0.06600
H222        H  0.83751626  0.63605217  0.78736098     0.07200
H223        H  0.86456311  0.59414736  0.77785363     0.08400
Cu224      Cu  0.82083200  0.61434129  0.81487957     0.44200
Cu225      Cu  0.84297644  0.57880184  0.80687785     0.42000
Cu226      Cu  0.81096919  0.57860829  0.83600888     0.43900
N227        N  0.80368996  0.61324559  0.83228017    -0.35300
N228        N  0.80007751  0.60023946  0.84020490    -0.29500
C229        C  0.78853632  0.60360899  0.85066918    -0.05600
C230        C  0.78465498  0.61950926  0.84915906     0.06600
C231        C  0.79453709  0.62519887  0.83737623     0.00400
H232        H  0.78324044  0.59505105  0.85860431     0.08100
H233        H  0.79520824  0.63719295  0.83290655     0.07100
N234        N  0.82344865  0.55860786  0.82903638    -0.36700
N235        N  0.83513752  0.55869103  0.81862571    -0.28900
C236        C  0.84007331  0.54373128  0.81625822    -0.04100
C237        C  0.83104745  0.53366992  0.82560925     0.04500
C238        C  0.82065197  0.54359965  0.83356402     0.02600
H239        H  0.84934495  0.54047786  0.80805159     0.07700
H240        H  0.81132577  0.54020130  0.84165426     0.06500
N241        N  0.84171275  0.78797754  0.60434372    -0.27900
N242        N  0.83392652  0.79159190  0.61742388    -0.35700
C243        C  0.83903540  0.78226841  0.62929209     0.00500
C244        C  0.85071261  0.77233030  0.62346739     0.06500
C245        C  0.85212514  0.77632589  0.60758406    -0.06600
H246        H  0.83473465  0.78290076  0.64134568     0.07200
H247        H  0.85997825  0.77103099  0.59895992     0.08400
Cu248      Cu  0.81715660  0.80947217  0.61872271     0.44200
Cu249      Cu  0.83745315  0.79915880  0.58282292     0.42000
Cu250      Cu  0.81056740  0.83343198  0.58403970     0.43900
N251        N  0.80187691  0.82868552  0.61823247    -0.35300
N252        N  0.79973281  0.83788070  0.60573476    -0.29500
C253        C  0.78913037  0.84923775  0.60942855    -0.05600
C254        C  0.78426056  0.84694935  0.62497209     0.06600
C255        C  0.79264676  0.83380779  0.63012627     0.00400
H256        H  0.78489284  0.85814803  0.60123673     0.08100
H257        H  0.79210871  0.82830730  0.64169273     0.07100
N258        N  0.82114823  0.82470610  0.56354559    -0.36700
N259        N  0.83071237  0.81230036  0.56310857    -0.28900
C260        C  0.83480749  0.80946058  0.54797812    -0.04100
C261        C  0.82747038  0.82057812  0.53833099     0.04500
C262        C  0.81891567  0.83004909  0.54868786     0.02600
H263        H  0.84225161  0.79970757  0.54430661     0.07700
H264        H  0.81142271  0.84000628  0.54570889     0.06500
N265        N  0.61000447  0.83123593  0.79066619    -0.27900
N266        N  0.62314023  0.82326785  0.79369143    -0.35700
C267        C  0.63476875  0.82863076  0.78424525     0.00500
C268        C  0.62873600  0.84065736  0.77482292     0.06500
C269        C  0.61296827  0.84199093  0.77925582    -0.06600
H270        H  0.64683027  0.82430713  0.78452345     0.07200
H271        H  0.60424864  0.85010182  0.77450487     0.08400
Cu272      Cu  0.62494332  0.80594274  0.81099723     0.44200
Cu273      Cu  0.58876843  0.82693079  0.80232573     0.42000
Cu274      Cu  0.59008740  0.79856483  0.83485183     0.43900
N275        N  0.62436373  0.78994502  0.82961506    -0.35300
N276        N  0.61181921  0.78757158  0.83867545    -0.29500
C277        C  0.61543485  0.77666816  0.84975093    -0.05600
C278        C  0.63096310  0.77183439  0.84745110     0.06600
C279        C  0.63622365  0.78052566  0.83456237     0.00400
H280        H  0.60721966  0.77230315  0.85856126     0.08100
H281        H  0.64786007  0.78015557  0.82921423     0.07100
N282        N  0.56946287  0.80965342  0.82708768    -0.36700
N283        N  0.56903415  0.81989378  0.81524380    -0.28900
C284        C  0.55395517  0.82443800  0.81283190    -0.04100
C285        C  0.54427743  0.81670295  0.82366448     0.04500
C286        C  0.55463459  0.80741643  0.83251005     0.02600
H287        H  0.55039277  0.83265990  0.80367522     0.07700
H288        H  0.55168735  0.79942557  0.84207691     0.06500
N289        N  0.34525605  0.71283441  0.91001165    -0.27900
N290        N  0.33784343  0.70904273  0.89674819    -0.35700
C291        C  0.34332030  0.71821064  0.88492999     0.00500
C292        C  0.35478261  0.72833216  0.89100200     0.06500
C293        C  0.35570011  0.72450162  0.90697641    -0.06600
H294        H  0.33916236  0.71753776  0.87282216     0.07200
H295        H  0.36308729  0.73004386  0.91587053     0.08400
Cu296      Cu  0.32020399  0.69195543  0.89543908     0.44200
Cu297      Cu  0.34003306  0.70247923  0.93170832     0.42000
Cu298      Cu  0.30890728  0.67221772  0.93170055     0.43900
N299        N  0.30267183  0.67475913  0.89664985    -0.35300
N300        N  0.29863894  0.66725077  0.90978795    -0.29500
C301        C  0.28690033  0.65694323  0.90643195    -0.05600
C302        C  0.28328171  0.65813431  0.89041316     0.06600
C303        C  0.29357305  0.66955835  0.88465215     0.00400
H304        H  0.28117640  0.64944180  0.91510413     0.08100
H305        H  0.29447310  0.67379787  0.87259022     0.07100
N306        N  0.32027459  0.68053728  0.95200133    -0.36700
N307        N  0.33157331  0.69139635  0.95198320    -0.28900
C308        C  0.33595323  0.69439032  0.96702560    -0.04100
C309        C  0.32695590  0.68502093  0.97710153     0.04500
C310        C  0.31716104  0.67638402  0.96707012     0.02600
H311        H  0.34476576  0.70309099  0.97032721     0.07700
H312        H  0.30828530  0.66776898  0.97039909     0.06500
N313        N  0.34539648  0.90297804  0.72331557    -0.27900
N314        N  0.33783965  0.88977380  0.71963792    -0.35700
C315        C  0.34263490  0.87815597  0.72941276     0.00500
C316        C  0.35379478  0.88428519  0.73983006     0.06500
C317        C  0.35524165  0.90010544  0.73554567    -0.06600
H318        H  0.33834042  0.86610087  0.72881280     0.07200
H319        H  0.36273623  0.90896974  0.74098241     0.08400
Cu320      Cu  0.32119487  0.88805710  0.70161973     0.44200
Cu321      Cu  0.34154498  0.92425131  0.71163724     0.42000
Cu322      Cu  0.31179023  0.92369765  0.68007354     0.43900
N323        N  0.30465718  0.88891474  0.68343695    -0.35300
N324        N  0.30124202  0.90192458  0.67542440    -0.29500
C325        C  0.28996571  0.89856451  0.66463670    -0.05600
C326        C  0.28601038  0.88264291  0.66594385     0.06600
C327        C  0.29563222  0.87695224  0.67802169     0.00400
H328        H  0.28481382  0.90720388  0.65668910     0.08100
H329        H  0.29609821  0.86499864  0.68261396     0.07100
N330        N  0.32366651  0.94394038  0.68758998    -0.36700
N331        N  0.33448502  0.94406967  0.69892956    -0.28900
C332        C  0.33932407  0.95904660  0.70133212    -0.04100
C333        C  0.33113827  0.96895963  0.69105858     0.04500
C334        C  0.32133690  0.95886663  0.68249968     0.02600
H335        H  0.34793388  0.96239241  0.71021524     0.07700
H336        H  0.31275670  0.96208790  0.67353803     0.06500
N337        N  0.40853162  0.79245701  0.84754491    -0.27900
N338        N  0.39544226  0.79583637  0.83962846    -0.35700
C339        C  0.38359346  0.78661820  0.84490866     0.00500
C340        C  0.38941049  0.77691302  0.85681469     0.06500
C341        C  0.40529944  0.78099942  0.85818676    -0.06600
H342        H  0.37159143  0.78707541  0.84042204     0.07200
H343        H  0.41397729  0.77579466  0.86606579     0.08400
Cu344      Cu  0.39404661  0.81291285  0.82209378     0.44200
Cu345      Cu  0.43021712  0.80324673  0.84274566     0.42000
Cu346      Cu  0.42971222  0.83432637  0.81251242     0.43900
N347        N  0.39477182  0.83132574  0.80592981    -0.35300
N348        N  0.40771034  0.83949757  0.80263300    -0.29500
C349        C  0.40412918  0.85066041  0.79180216    -0.05600
C350        C  0.38817046  0.84936615  0.78802268     0.06600
C351        C  0.38266105  0.83695623  0.79724806     0.00400
H352        H  0.41263633  0.85879440  0.78673328     0.08100
H353        H  0.37072064  0.83231722  0.79768047     0.07100
N354        N  0.45024288  0.82564471  0.82309982    -0.36700
N355        N  0.45043104  0.81448857  0.83410215    -0.28900
C356        C  0.46557905  0.81100055  0.83768546    -0.04100
C357        C  0.47551832  0.82032717  0.82844894     0.04500
C358        C  0.46525772  0.82950450  0.81939257     0.02600
H359        H  0.46900580  0.80189431  0.84602241     0.07700
H360        H  0.46836461  0.83808823  0.81040877     0.06500
N361        N  0.10827025  0.67187523  0.72352427    -0.27900
N362        N  0.12148951  0.67945138  0.71996751    -0.35700
C363        C  0.13333721  0.67386227  0.72900107     0.00500
C364        C  0.12737436  0.66212034  0.73881819     0.06500
C365        C  0.11138660  0.66119146  0.73496837    -0.06600
H366        H  0.14542997  0.67803001  0.72828675     0.07200
H367        H  0.10259012  0.65346956  0.74017573     0.08400
Cu368      Cu  0.12306494  0.69702986  0.70300931     0.44200
Cu369      Cu  0.08673690  0.67675662  0.71255747     0.42000
Cu370      Cu  0.08737906  0.70774805  0.68222888     0.43900
N371        N  0.12226147  0.71417752  0.68556038    -0.35300
N372        N  0.10925723  0.71804665  0.67773853    -0.29500
C373        C  0.11277090  0.72947997  0.66719040    -0.05600
C374        C  0.12876218  0.73304710  0.66853909     0.06600
C375        C  0.13436380  0.72307054  0.68031266     0.00400
H376        H  0.10423562  0.73495915  0.65934138     0.08100
H377        H  0.14638194  0.72219160  0.68469554     0.07100
N378        N  0.06707676  0.69576146  0.68924759    -0.36700
N379        N  0.06687881  0.68452091  0.70016328    -0.28900
C380        C  0.05187662  0.67958262  0.70220189    -0.04100
C381        C  0.04205645  0.68813829  0.69213210     0.04500
C382        C  0.05219552  0.69826109  0.68407239     0.02600
H383        H  0.04844104  0.67053457  0.71059370     0.07700
H384        H  0.04901181  0.70713737  0.67539015     0.06500
N385        N  0.22011976  0.60546321  0.84432915    -0.27900
N386        N  0.21627487  0.61883069  0.83715014    -0.35700
C387        C  0.22536864  0.63059896  0.84287046     0.00500
C388        C  0.23544074  0.62438391  0.85429964     0.06500
C389        C  0.23172358  0.60837655  0.85489063    -0.06600
H390        H  0.22453206  0.64281085  0.83907287     0.07200
H391        H  0.23718145  0.59942231  0.86226719     0.08400
Cu392      Cu  0.19865210  0.62042098  0.82008612     0.44200
Cu393      Cu  0.20947825  0.58393226  0.83905180     0.42000
Cu394      Cu  0.17761111  0.58442694  0.80973406     0.43900
N395        N  0.18028060  0.61950167  0.80378621    -0.35300
N396        N  0.17234698  0.60649231  0.80015005    -0.29500
C397        C  0.16134022  0.61004107  0.78913548    -0.05600
C398        C  0.16251300  0.62604297  0.78557182     0.06600
C399        C  0.17464191  0.63161926  0.79513767     0.00400
H400        H  0.15342480  0.60149041  0.78378224     0.08100
H401        H  0.17911950  0.64361137  0.79578493     0.07100
N402        N  0.18612547  0.56399827  0.82055134    -0.36700
N403        N  0.19763285  0.56386356  0.83118811    -0.28900
C404        C  0.20057706  0.54880878  0.83547474    -0.04100
C405        C  0.19046300  0.53886092  0.82713082     0.04500
C406        C  0.18146442  0.54901079  0.81778481     0.02600
H407        H  0.20967759  0.54544905  0.84385004     0.07700
H408        H  0.17231687  0.54583576  0.80938873     0.06500
N409        N  0.22125135  0.83942402  0.61247361    -0.27900
N410        N  0.21827782  0.83127047  0.62550765    -0.35700
C411        C  0.22793861  0.83626445  0.63714198     0.00500
C412        C  0.23753373  0.84821489  0.63124646     0.06500
C413        C  0.23288967  0.84992388  0.61553393    -0.06600
H414        H  0.22786666  0.83152543  0.64904997     0.07200
H415        H  0.23783280  0.85793063  0.60683555     0.08400
Cu416      Cu  0.20134339  0.81360344  0.62712998     0.44200
Cu417      Cu  0.20987748  0.83502251  0.59097920     0.42000
Cu418      Cu  0.18056541  0.80312154  0.59149015     0.43900
N419        N  0.18346366  0.79683521  0.62641343    -0.35300
N420        N  0.17568781  0.79304432  0.61336582    -0.29500
C421        C  0.16471171  0.78203327  0.61687974    -0.05600
C422        C  0.16562695  0.77869256  0.63296267     0.06600
C423        C  0.17769838  0.78834015  0.63857727     0.00400
H424        H  0.15679495  0.77676800  0.60827883     0.08100
H425        H  0.18192563  0.78931618  0.65063972     0.07100
N426        N  0.18804030  0.81462487  0.57109320    -0.36700
N427        N  0.19851728  0.82626745  0.57085292    -0.28900
C428        C  0.20121252  0.83043799  0.55569804    -0.04100
C429        C  0.19204512  0.82092484  0.54584118     0.04500
C430        C  0.18382045  0.81108651  0.55614093     0.02600
H431        H  0.20958030  0.83947889  0.55219709     0.07700
H432        H  0.17566535  0.80168929  0.55309257     0.06500
N433        N  0.11383995  0.29319331  0.67084710    -0.27900
N434        N  0.12703977  0.29743693  0.67812169    -0.35700
C435        C  0.13909759  0.28864001  0.67266318     0.00500
C436        C  0.13328205  0.27829267  0.66132257     0.06500
C437        C  0.11717862  0.28156060  0.66047073    -0.06600
H438        H  0.15121793  0.28982996  0.67666221     0.07200
H439        H  0.10844358  0.27573860  0.65310822     0.08400
Cu440      Cu  0.12831892  0.31497395  0.69510808     0.44200
Cu441      Cu  0.09197292  0.30321666  0.67595969     0.42000
Cu442      Cu  0.09246299  0.33474106  0.70600013     0.43900
N443        N  0.12758636  0.33321462  0.71136454    -0.35300
N444        N  0.11446883  0.34070694  0.71538237    -0.29500
C445        C  0.11801322  0.35171475  0.72637864    -0.05600
C446        C  0.13418994  0.35106367  0.72947520     0.06600
C447        C  0.13980316  0.33916863  0.71964263     0.00400
H448        H  0.10934507  0.35930392  0.73196546     0.08100
H449        H  0.15185296  0.33496581  0.71857914     0.07100
N450        N  0.07206541  0.32576253  0.69543340    -0.36700
N451        N  0.07187158  0.31450957  0.68453039    -0.28900
C452        C  0.05674173  0.31126380  0.68067328    -0.04100
C453        C  0.04686286  0.32087513  0.68961488     0.04500
C454        C  0.05706949  0.32991371  0.69881596     0.02600
H455        H  0.05324979  0.30220399  0.67230886     0.07700
H456        H  0.05391166  0.33879237  0.70748601     0.06500
N457        N  0.17776560  0.40403042  0.79407923    -0.27900
N458        N  0.18672468  0.39138070  0.79630602    -0.35700
C459        C  0.18209748  0.37994802  0.78621196     0.00500
C460        C  0.16955562  0.38563946  0.77721803     0.06500
C461        C  0.16714085  0.40096001  0.78259222    -0.06600
H462        H  0.18734733  0.36827126  0.78567609     0.07200
H463        H  0.15846549  0.40938600  0.77833946     0.08400
Cu464      Cu  0.20449622  0.39005526  0.81332036     0.44200
Cu465      Cu  0.18069005  0.42507569  0.80636141     0.42000
Cu466      Cu  0.20985581  0.42480741  0.83786489     0.43900
N467        N  0.22026892  0.39116347  0.83221712    -0.35300
N468        N  0.22191952  0.40368732  0.84147006    -0.29500
C469        C  0.23282180  0.40049124  0.85268263    -0.05600
C470        C  0.23841925  0.38522615  0.85033074     0.06600
C471        C  0.23014028  0.37970644  0.83722878     0.00400
H472        H  0.23662943  0.40883336  0.86163966     0.08100
H473        H  0.23108979  0.36816269  0.83175350     0.07100
N474        N  0.19785861  0.44498153  0.83051662    -0.36700
N475        N  0.18722000  0.44506684  0.81902546    -0.28900
C476        C  0.18247824  0.46004840  0.81643134    -0.04100
C477        C  0.19055009  0.46999986  0.82676942     0.04500
C478        C  0.20017651  0.45991763  0.83554361     0.02600
H479        H  0.17413752  0.46338611  0.80729089     0.07700
H480        H  0.20865445  0.46313599  0.84459883     0.06500
N481        N  0.34593376  0.10441804  0.72085879    -0.27900
N482        N  0.33770851  0.11734627  0.71767023    -0.35700
C483        C  0.34278692  0.12917297  0.72705048     0.00500
C484        C  0.35488136  0.12346697  0.73662146     0.06500
C485        C  0.35653822  0.10768794  0.73232297    -0.06600
H486        H  0.33814836  0.14111132  0.72668566     0.07200
H487        H  0.36472083  0.09913025  0.73723736     0.08400
Cu488      Cu  0.32026651  0.11844586  0.70039153     0.44200
Cu489      Cu  0.34204976  0.08297821  0.70950624     0.42000
Cu490      Cu  0.31227923  0.08287238  0.67796830     0.43900
N491        N  0.30396931  0.11731833  0.68202743    -0.35300
N492        N  0.30110317  0.10442363  0.67362997    -0.29500
C493        C  0.28999598  0.10776587  0.66264732    -0.05600
C494        C  0.28561123  0.12356120  0.66421815     0.06600
C495        C  0.29479339  0.12917232  0.67666415     0.00400
H496        H  0.28534399  0.09922246  0.65430385     0.08100
H497        H  0.29495483  0.14103415  0.68149090     0.07100
N498        N  0.32419565  0.06277712  0.68588007    -0.36700
N499        N  0.33493482  0.06286879  0.69729624    -0.28900
C500        C  0.33961225  0.04792013  0.70016792    -0.04100
C501        C  0.33141890  0.03779438  0.69011167     0.04500
C502        C  0.32177832  0.04773441  0.68119182     0.02600
H503        H  0.34810057  0.04474532  0.70923035     0.07700
H504        H  0.31320838  0.04433573  0.67228765     0.06500
N505        N  0.41016356  0.16804756  0.79874911    -0.27900
N506        N  0.39725606  0.17627798  0.80194914    -0.35700
C507        C  0.38527035  0.17104096  0.79288231     0.00500
C508        C  0.39079954  0.15882658  0.78341573     0.06500
C509        C  0.40668633  0.15725017  0.78751641    -0.06600
H510        H  0.37337772  0.17577892  0.79332406     0.07200
H511        H  0.41518774  0.14904931  0.78257082     0.08400
Cu512      Cu  0.39631400  0.19419379  0.81854550     0.44200
Cu513      Cu  0.43182952  0.17251737  0.80974617     0.42000
Cu514      Cu  0.43191256  0.20375952  0.84005162     0.43900
N515        N  0.39727740  0.21121462  0.83606366    -0.35300
N516        N  0.41017108  0.21462412  0.84427762    -0.29500
C517        C  0.40670172  0.22617675  0.85472297    -0.05600
C518        C  0.39088220  0.23031109  0.85284631     0.06600
C519        C  0.38533043  0.22051518  0.84091713     0.00400
H520        H  0.41517661  0.23142790  0.86278967     0.08100
H521        H  0.37345056  0.22007821  0.83610952     0.07100
N522        N  0.45205330  0.19162363  0.83257735    -0.36700
N523        N  0.45199195  0.18031772  0.82172977    -0.28900
C524        C  0.46694248  0.17529065  0.81945295    -0.04100
C525        C  0.47702631  0.18382417  0.82930457     0.04500
C526        C  0.46705506  0.19407908  0.83743808     0.02600
H527        H  0.47016632  0.16627078  0.81096007     0.07700
H528        H  0.47038298  0.20285790  0.84615360     0.06500
N529        N  0.30036316  0.34034174  0.90554150    -0.27900
N530        N  0.30486839  0.33343621  0.89224430    -0.35700
C531        C  0.29666319  0.33963838  0.88009513     0.00500
C532        C  0.28634690  0.35101358  0.88593515     0.06500
C533        C  0.28911467  0.35115948  0.90217164    -0.06600
H534        H  0.29802132  0.33587265  0.86793077     0.07200
H535        H  0.28307463  0.35821176  0.91099035     0.08400
Cu536      Cu  0.32124468  0.31518561  0.89102283     0.44200
Cu537      Cu  0.30924616  0.33393968  0.92763037     0.42000
Cu538      Cu  0.33808550  0.30167856  0.92782962     0.43900
N539        N  0.33760901  0.29693542  0.89245917    -0.35300
N540        N  0.34394871  0.29208478  0.90593529    -0.29500
C541        C  0.35429876  0.28036147  0.90287432    -0.05600
C542        C  0.35446050  0.27762900  0.88666148     0.06600
C543        C  0.34366406  0.28837405  0.88047174     0.00400
H544        H  0.36105566  0.27418844  0.91185556     0.08100
H545        H  0.34055728  0.29004964  0.86814566     0.07100
N546        N  0.33012816  0.31315834  0.94810281    -0.36700
N547        N  0.31967810  0.32482422  0.94802974    -0.28900
C548        C  0.31690027  0.32935534  0.96305130    -0.04100
C549        C  0.32604072  0.32012052  0.97316230     0.04500
C550        C  0.33427910  0.30998871  0.96317206     0.02600
H551        H  0.30873832  0.33867594  0.96628616     0.07700
H552        H  0.34247674  0.30073544  0.96654255     0.06500
N553        N  0.22309540  0.16790225  0.60900350    -0.27900
N554        N  0.22004323  0.17626755  0.62187717    -0.35700
C555        C  0.22932518  0.17114111  0.63376587     0.00500
C556        C  0.23871714  0.15887402  0.62820265     0.06500
C557        C  0.23437930  0.15713635  0.61241716    -0.06600
H558        H  0.22908381  0.17595235  0.64563845     0.07200
H559        H  0.23923396  0.14886152  0.60393106     0.08400
Cu560      Cu  0.20332395  0.19422500  0.62297707     0.44200
Cu561      Cu  0.21203910  0.17204254  0.58733491     0.42000
Cu562      Cu  0.18145608  0.20262626  0.58742634     0.43900
N563        N  0.18562179  0.21119584  0.62167339    -0.35300
N564        N  0.17736255  0.21407909  0.60868579    -0.29500
C565        C  0.16677466  0.22559575  0.61167432    -0.05600
C566        C  0.16849906  0.23027771  0.62732424     0.06600
C567        C  0.18058072  0.22085234  0.63327470     0.00400
H568        H  0.15866245  0.23038514  0.60297201     0.08100
H569        H  0.18531862  0.22087019  0.64518951     0.07100
N570        N  0.18886158  0.19071054  0.56734468    -0.36700
N571        N  0.19993287  0.17964136  0.56721855    -0.28900
C572        C  0.20223338  0.17487077  0.55218815    -0.04100
C573        C  0.19213576  0.18336252  0.54232275     0.04500
C574        C  0.18384367  0.19328193  0.55245191     0.02600
H575        H  0.21091247  0.16610839  0.54875059     0.07700
H576        H  0.17491775  0.20192401  0.54933096     0.06500
N577        N  0.11228582  0.66282312  0.30258626    -0.27900
N578        N  0.12555232  0.66998339  0.30682478    -0.35700
C579        C  0.13753859  0.66437646  0.29799913     0.00500
C580        C  0.13157133  0.65306536  0.28769564     0.06500
C581        C  0.11549911  0.65236016  0.29100349    -0.06600
H582        H  0.14967183  0.66839923  0.29895166     0.07200
H583        H  0.10666488  0.64523076  0.28503967     0.08400
Cu584      Cu  0.12672244  0.68759732  0.32384411     0.44200
Cu585      Cu  0.09032119  0.66867819  0.31186322     0.42000
Cu586      Cu  0.08975475  0.70060351  0.34093621     0.43900
N587        N  0.12506767  0.70554048  0.34046991    -0.35300
N588        N  0.11159445  0.71026808  0.34686992    -0.29500
C589        C  0.11458798  0.72228358  0.35691999    -0.05600
C590        C  0.13073485  0.72533773  0.35674925     0.06600
C591        C  0.13696991  0.71444523  0.34618206     0.00400
H592        H  0.10559690  0.72858649  0.36351461     0.08100
H593        H  0.14925530  0.71306247  0.34282149     0.07100
N594        N  0.06957368  0.68954885  0.33219118    -0.36700
N595        N  0.06980301  0.67800595  0.32161152    -0.28900
C596        C  0.05482400  0.67399565  0.31794844    -0.04100
C597        C  0.04459180  0.68344431  0.32664919     0.04500
C598        C  0.05442799  0.69314068  0.33557854     0.02600
H599        H  0.05169502  0.66494042  0.30943899     0.07700
H600        H  0.05090513  0.70247345  0.34361181     0.06500
N601        N  0.17489332  0.78893479  0.41019201    -0.27900
N602        N  0.18266343  0.79245175  0.39707566    -0.35700
C603        C  0.17719285  0.78342741  0.38515835     0.00500
C604        C  0.16531682  0.77371853  0.39099178     0.06500
C605        C  0.16415710  0.77759360  0.40693117    -0.06600
H606        H  0.18154291  0.78400076  0.37312138     0.07200
H607        H  0.15635889  0.77232754  0.41562567     0.08400
Cu608      Cu  0.20025973  0.80940555  0.39585898     0.44200
Cu609      Cu  0.17981006  0.79949153  0.43191419     0.42000
Cu610      Cu  0.20781231  0.83240293  0.43113049     0.43900
N611        N  0.21654611  0.82763137  0.39694154    -0.35300
N612        N  0.21912443  0.83635381  0.40967564    -0.29500
C613        C  0.23030907  0.84721274  0.40633109    -0.05600
C614        C  0.23503171  0.84519541  0.39070720     0.06600
C615        C  0.22599348  0.83263758  0.38518153     0.00400
H616        H  0.23481135  0.85573729  0.41477556     0.08100
H617        H  0.22608938  0.82751390  0.37344201     0.07100
N618        N  0.19729409  0.82380200  0.45161753    -0.36700
N619        N  0.18739267  0.81167278  0.45196958    -0.28900
C620        C  0.18371959  0.80845377  0.46714194    -0.04100
C621        C  0.19168279  0.81906873  0.47690261     0.04500
C622        C  0.20013790  0.82863871  0.46653198     0.02600
H623        H  0.17605943  0.79883282  0.47072079     0.07700
H624        H  0.20806085  0.83825515  0.46950938     0.06500
N625        N  0.17391438  0.60189770  0.22099840    -0.27900
N626        N  0.18251317  0.61477171  0.21871258    -0.35700
C627        C  0.17771709  0.62609742  0.22879338     0.00500
C628        C  0.16546184  0.62011729  0.23796214     0.06500
C629        C  0.16336813  0.60470337  0.23260839    -0.06600
H630        H  0.18286299  0.63781663  0.22932866     0.07200
H631        H  0.15508281  0.59599113  0.23703454     0.08400
Cu632      Cu  0.20058087  0.61643004  0.20221001     0.44200
Cu633      Cu  0.17781254  0.58086674  0.20893526     0.42000
Cu634      Cu  0.20972433  0.58108794  0.17993377     0.43900
N635        N  0.21749079  0.61565413  0.18445907    -0.35300
N636        N  0.22062075  0.60283462  0.17604503    -0.29500
C637        C  0.23190792  0.60631578  0.16534901    -0.05600
C638        C  0.23617768  0.62209120  0.16716211     0.06600
C639        C  0.22675594  0.62759768  0.17942992     0.00400
H640        H  0.23682462  0.59786356  0.15707723     0.08100
H641        H  0.22649030  0.63945109  0.18428860     0.07100
N642        N  0.19782931  0.56074896  0.18713974    -0.36700
N643        N  0.18618312  0.56075424  0.19759880    -0.28900
C644        C  0.18169920  0.54573456  0.20040848    -0.04100
C645        C  0.19096370  0.53568398  0.19131050     0.04500
C646        C  0.20102837  0.54568745  0.18299623     0.02600
H647        H  0.17254571  0.54243526  0.20873504     0.07700
H648        H  0.21040852  0.54229244  0.17496647     0.06500
N649        N  0.34532953  0.71227224  0.11330870    -0.27900
N650        N  0.33842627  0.70784595  0.12663334    -0.35700
C651        C  0.34413702  0.71661553  0.13863081     0.00500
C652        C  0.35523215  0.72713040  0.13261559     0.06500
C653        C  0.35567959  0.72397627  0.11648472    -0.06600
H654        H  0.34039962  0.71537737  0.15082047     0.07200
H655        H  0.36271109  0.72995939  0.10760378     0.08400
Cu656      Cu  0.32120279  0.69045893  0.12794030     0.44200
Cu657      Cu  0.33982779  0.70254819  0.09140444     0.42000
Cu658      Cu  0.30983750  0.67141969  0.09138097     0.43900
N659        N  0.30372311  0.67333933  0.12648863    -0.35300
N660        N  0.29960443  0.66616754  0.11319337    -0.29500
C661        C  0.28775699  0.65594409  0.11630543    -0.05600
C662        C  0.28417970  0.65679447  0.13234620     0.06600
C663        C  0.29460726  0.66796736  0.13837301     0.00400
H664        H  0.28195610  0.64872448  0.10744121     0.08100
H665        H  0.29557442  0.67195771  0.15051182     0.07100
N666        N  0.32080273  0.68008253  0.07105577    -0.36700
N667        N  0.33166061  0.69137691  0.07106696    -0.28900
C668        C  0.33584807  0.69457512  0.05602162    -0.04100
C669        C  0.32717837  0.68487191  0.04596187     0.04500
C670        C  0.31778467  0.67583008  0.05599263     0.02600
H671        H  0.34429076  0.70362357  0.05270058     0.07700
H672        H  0.30924292  0.66687722  0.05265963     0.06500
N673        N  0.40884536  0.79036945  0.17699989    -0.27900
N674        N  0.39560005  0.79423107  0.18436864    -0.35700
C675        C  0.38368187  0.78532379  0.17870231     0.00500
C676        C  0.38967486  0.77539414  0.16711021     0.06500
C677        C  0.40567950  0.77898798  0.16628838    -0.06600
H678        H  0.37156977  0.78598490  0.18282837     0.07200
H679        H  0.41449777  0.77332040  0.15892605     0.08400
Cu680      Cu  0.39441017  0.81105843  0.20212845     0.44200
Cu681      Cu  0.43069618  0.79975847  0.18316519     0.42000
Cu682      Cu  0.43087025  0.82953430  0.21472389     0.43900
N683        N  0.39562283  0.82825288  0.21953715    -0.35300
N684        N  0.40885318  0.83531765  0.22404595    -0.29500
C685        C  0.40546458  0.84572958  0.23564916    -0.05600
C686        C  0.38931639  0.84505929  0.23865676     0.06600
C687        C  0.38350908  0.83385868  0.22816091     0.00400
H688        H  0.41418599  0.85291298  0.24171339     0.08100
H689        H  0.37135288  0.83002215  0.22681479     0.07100
N690        N  0.45114569  0.82005761  0.20450016    -0.36700
N691        N  0.45105070  0.80927367  0.19314523    -0.28900
C692        C  0.46606867  0.80537376  0.18958431    -0.04100
C693        C  0.47621639  0.81413681  0.19911916     0.04500
C694        C  0.46624545  0.82331811  0.20842737     0.02600
H695        H  0.46925298  0.79677037  0.18065373     0.07700
H696        H  0.46960932  0.83165532  0.21755374     0.06500
N697        N  0.29687892  0.89987948  0.34551441    -0.27900
N698        N  0.30038828  0.88679331  0.33768303    -0.35700
C699        C  0.29159366  0.87480996  0.34332830     0.00500
C700        C  0.28201803  0.88056204  0.35534066     0.06500
C701        C  0.28575436  0.89653569  0.35643130    -0.06600
H702        H  0.29220076  0.86278952  0.33894114     0.07200
H703        H  0.28051645  0.90520594  0.36427032     0.08400
Cu704      Cu  0.31678015  0.88551449  0.31952523     0.44200
Cu705      Cu  0.30689449  0.92170760  0.34032313     0.42000
Cu706      Cu  0.33590407  0.92142013  0.30806198     0.43900
N707        N  0.33426137  0.88645632  0.30239211    -0.35300
N708        N  0.34152774  0.89968048  0.29827235    -0.29500
C709        C  0.35256315  0.89634948  0.28727863    -0.05600
C710        C  0.35217024  0.88020241  0.28427643     0.06600
C711        C  0.34037832  0.87434624  0.29408904     0.00400
H712        H  0.36015401  0.90508704  0.28177700     0.08100
H713        H  0.33663757  0.86215077  0.29532627     0.07100
N714        N  0.32844392  0.94157668  0.31982077    -0.36700
N715        N  0.31806709  0.94175475  0.33153531    -0.28900
C716        C  0.31575128  0.95682488  0.33613788    -0.04100
C717        C  0.32510778  0.96665266  0.32685006     0.04500
C718        C  0.33299394  0.95648465  0.31666080     0.02600
H719        H  0.30752855  0.96030537  0.34531155     0.07700
H720        H  0.34135016  0.95957904  0.30746957     0.06500
N721        N  0.71958439  0.66803343  0.10805735    -0.27900
N722        N  0.71283794  0.67310385  0.12122748    -0.35700
C723        C  0.72031498  0.66666445  0.13373800     0.00500
C724        C  0.73231749  0.65695029  0.12819522     0.06500
C725        C  0.73144851  0.65806834  0.11182560    -0.06600
H726        H  0.71730198  0.66903779  0.14596402     0.07200
H727        H  0.73922005  0.65252706  0.10328310     0.08400
Cu728      Cu  0.69450072  0.68937099  0.12161265     0.44200
Cu729      Cu  0.71300899  0.67601456  0.08576535     0.42000
Cu730      Cu  0.68530090  0.70926182  0.08477791     0.43900
N731        N  0.67875203  0.70807049  0.11984842    -0.35300
N732        N  0.67607351  0.71602696  0.10660971    -0.29500
C733        C  0.66663072  0.72846124  0.10988648    -0.05600
C734        C  0.66301748  0.72808641  0.12588917     0.06600
C735        C  0.67085717  0.71499126  0.13180685     0.00400
H736        H  0.66271261  0.73712937  0.10128305     0.08100
H737        H  0.67138541  0.71119130  0.14404399     0.07100
N738        N  0.69476172  0.69853142  0.06470017    -0.36700
N739        N  0.70471587  0.68645139  0.06511515    -0.28900
C740        C  0.70819216  0.68206992  0.05020966    -0.04100
C741        C  0.70001235  0.69181097  0.03977161     0.04500
C742        C  0.69162606  0.70212217  0.04948362     0.02600
H743        H  0.71603704  0.67237782  0.04731186     0.07700
H744        H  0.68367972  0.71149691  0.04587146     0.06500
N745        N  0.68326891  0.90622875  0.28501911    -0.27900
N746        N  0.69020765  0.89277140  0.28902046    -0.35700
C747        C  0.68446534  0.88104356  0.27990200     0.00500
C748        C  0.67321673  0.88735886  0.26974377     0.06500
C749        C  0.67275937  0.90337784  0.27334426    -0.06600
H750        H  0.68787405  0.86873284  0.28097213     0.07200
H751        H  0.66534402  0.91231333  0.26790407     0.08400
Cu752      Cu  0.70635020  0.89070642  0.30740872     0.44200
Cu753      Cu  0.68839434  0.92770578  0.29590045     0.42000
Cu754      Cu  0.71665209  0.92650940  0.32858285     0.43900
N755        N  0.72157132  0.89123250  0.32666898    -0.35300
N756        N  0.72535347  0.90426341  0.33447887    -0.29500
C757        C  0.73562723  0.90054433  0.34611004    -0.05600
C758        C  0.73850832  0.88436901  0.34556586     0.06600
C759        C  0.72932663  0.87889389  0.33307818     0.00400
H760        H  0.74089451  0.90908876  0.35408333     0.08100
H761        H  0.72834837  0.86684183  0.32884275     0.07100
N762        N  0.70599522  0.94712112  0.32036831    -0.36700
N763        N  0.69570285  0.94752147  0.30855770    -0.28900
C764        C  0.69107908  0.96258373  0.30621510    -0.04100
C765        C  0.69882041  0.97224344  0.31706568     0.04500
C766        C  0.70819559  0.96193111  0.32583635     0.02600
H767        H  0.68279589  0.96615711  0.29711004     0.07700
H768        H  0.71606206  0.96486981  0.33552071     0.06500
N769        N  0.79877170  0.83940196  0.40243928    -0.27900
N770        N  0.80263786  0.83174457  0.38935802    -0.35700
C771        C  0.79365135  0.83699765  0.37732773     0.00500
C772        C  0.78358353  0.84861660  0.38302393     0.06500
C773        C  0.78721416  0.84986790  0.39902790    -0.06600
H774        H  0.79456636  0.83273178  0.36528010     0.07200
H775        H  0.78170448  0.85759267  0.40763160     0.08400
Cu776      Cu  0.81994539  0.81454879  0.38819599     0.44200
Cu777      Cu  0.80918735  0.83456387  0.42425228     0.42000
Cu778      Cu  0.83982251  0.80376086  0.42424112     0.43900
N779        N  0.83775793  0.79786979  0.38925117    -0.35300
N780        N  0.84526285  0.79391315  0.40240824    -0.29500
C781        C  0.85608087  0.78270549  0.39902164    -0.05600
C782        C  0.85525408  0.77941333  0.38293120     0.06600
C783        C  0.84349650  0.78930690  0.37716349     0.00400
H784        H  0.86370845  0.77715628  0.40771023     0.08100
H785        H  0.83937708  0.79031275  0.36506419     0.07100
N786        N  0.83158671  0.81507746  0.44443501    -0.36700
N787        N  0.82058750  0.82622723  0.44446987    -0.28900
C788        C  0.81776716  0.83061970  0.45952308    -0.04100
C789        C  0.82744112  0.82181543  0.46952986     0.04500
C790        C  0.83603654  0.81209509  0.45944241     0.02600
H791        H  0.80912226  0.83945854  0.46284547     0.07700
H792        H  0.84467541  0.80320839  0.46268418     0.06500
N793        N  0.90912165  0.67105895  0.29254501    -0.27900
N794        N  0.89608601  0.67878530  0.29642757    -0.35700
C795        C  0.88396921  0.67341043  0.28764429     0.00500
C796        C  0.88957634  0.66167492  0.27766405     0.06500
C797        C  0.90561129  0.66047921  0.28114488    -0.06600
H798        H  0.87194783  0.67772887  0.28861329     0.07200
H799        H  0.91417974  0.65268794  0.27567844     0.08400
Cu800      Cu  0.89505341  0.69642205  0.31325698     0.44200
Cu801      Cu  0.93101204  0.67561026  0.30281711     0.42000
Cu802      Cu  0.93129193  0.70689288  0.33273732     0.43900
N803        N  0.89652402  0.71387577  0.33024567    -0.35300
N804        N  0.90979454  0.71774732  0.33758803    -0.29500
C805        C  0.90671789  0.72938350  0.34803621    -0.05600
C806        C  0.89071657  0.73303670  0.34713594     0.06600
C807        C  0.88466753  0.72293381  0.33570790     0.00400
H808        H  0.91552912  0.73486819  0.35556775     0.08100
H809        H  0.87250664  0.72202706  0.33174743     0.07100
N810        N  0.95122746  0.69439957  0.32564362    -0.36700
N811        N  0.95116839  0.68311037  0.31478814    -0.28900
C812        C  0.96607098  0.67787683  0.31270897    -0.04100
C813        C  0.97605142  0.68626271  0.32274603     0.04500
C814        C  0.96614856  0.69661222  0.33077596     0.02600
H815        H  0.96933388  0.66869925  0.30439390     0.07700
H816        H  0.96951971  0.70543804  0.33943330     0.06500
N817        N  0.61364358  0.83956928  0.21498257    -0.27900
N818        N  0.62657714  0.83381797  0.20829799    -0.35700
C819        C  0.63934122  0.84086392  0.21470464     0.00500
C820        C  0.63427740  0.85163806  0.22598860     0.06500
C821        C  0.61787118  0.85054714  0.22577664    -0.06600
H822        H  0.65144220  0.83804205  0.21158553     0.07200
H823        H  0.60963801  0.85673598  0.23339234     0.08400
Cu824      Cu  0.62668195  0.81551009  0.19193481     0.44200
Cu825      Cu  0.59103379  0.83108793  0.20998429     0.42000
Cu826      Cu  0.59007594  0.79447530  0.18700277     0.43900
N827        N  0.62462282  0.79498006  0.17862209    -0.35300
N828        N  0.61135339  0.78672802  0.17757031    -0.29500
C829        C  0.61401531  0.77365514  0.16885058    -0.05600
C830        C  0.62966863  0.77383978  0.16398902     0.06600
C831        C  0.63603049  0.78753956  0.17037551     0.00400
H832        H  0.60510808  0.76491482  0.16589714     0.08100
H833        H  0.64811736  0.79167850  0.16930765     0.07100
N834        N  0.57005838  0.80621219  0.19498503    -0.36700
N835        N  0.57032447  0.81956256  0.20316017    -0.28900
C836        C  0.55532895  0.82416582  0.20596824    -0.04100
C837        C  0.54506053  0.81319318  0.19922275     0.04500
C838        C  0.55492902  0.80199050  0.19235758     0.02600
H839        H  0.55223424  0.83482327  0.21235301     0.07700
H840        H  0.55148787  0.79150351  0.18585833     0.06500
N841        N  0.84261798  0.60579461  0.21846659    -0.27900
N842        N  0.83415911  0.61857170  0.21524960    -0.35700
C843        C  0.83986793  0.63083395  0.22363134     0.00500
C844        C  0.85259074  0.62557125  0.23258970     0.06500
C845        C  0.85399203  0.60960902  0.22897098    -0.06600
H846        H  0.83510447  0.64271666  0.22310401     0.07200
H847        H  0.86243914  0.60126616  0.23380631     0.08400
Cu848      Cu  0.81531241  0.61904030  0.19957007     0.44200
Cu849      Cu  0.83804835  0.58372770  0.20869994     0.42000
Cu850      Cu  0.80658111  0.58292066  0.17903244     0.43900
N851        N  0.79780515  0.61723194  0.18249910    -0.35300
N852        N  0.79480683  0.60406156  0.17459522    -0.29500
C853        C  0.78327075  0.60691887  0.16394241    -0.05600
C854        C  0.77873090  0.62265734  0.16528538     0.06600
C855        C  0.78821056  0.62879011  0.17721166     0.00400
H856        H  0.77848239  0.59814061  0.15591865     0.08100
H857        H  0.78841708  0.64086146  0.18151073     0.07100
N858        N  0.81894540  0.56306239  0.18667773    -0.36700
N859        N  0.83027865  0.56328437  0.19749486    -0.28900
C860        C  0.83510254  0.54834705  0.20027204    -0.04100
C861        C  0.82635924  0.53813611  0.19076244     0.04500
C862        C  0.81627458  0.54800151  0.18228010     0.02600
H863        H  0.84404599  0.54522564  0.20890807     0.07700
H864        H  0.80733338  0.54458320  0.17376245     0.06500
N865        N  0.10962417  0.29132559  0.34476861    -0.27900
N866        N  0.12255000  0.29483486  0.33667706    -0.35700
C867        C  0.13456153  0.28574089  0.34182106     0.00500
C868        C  0.12902317  0.27595067  0.35380037     0.06500
C869        C  0.11310903  0.27988189  0.35533363    -0.06600
H870        H  0.14647014  0.28636148  0.33715755     0.07200
H871        H  0.10457864  0.27469898  0.36335886     0.08400
Cu872      Cu  0.12355875  0.31177073  0.31894301     0.44200
Cu873      Cu  0.08781262  0.30207499  0.34066987     0.42000
Cu874      Cu  0.08762896  0.33233103  0.30961739     0.43900
N875        N  0.12217459  0.32926134  0.30178003    -0.35300
N876        N  0.10898672  0.33696542  0.29837964    -0.29500
C877        C  0.11192191  0.34738098  0.28666378    -0.05600
C878        C  0.12775996  0.34613637  0.28241198     0.06600
C879        C  0.13385207  0.33451068  0.29232440     0.00400
H880        H  0.10305674  0.35501596  0.28142424     0.08100
H881        H  0.14588407  0.33012403  0.29270007     0.07100
N882        N  0.06763358  0.32495032  0.32186133    -0.36700
N883        N  0.06760853  0.31402488  0.33308765    -0.28900
C884        C  0.05257962  0.31149291  0.33777034    -0.04100
C885        C  0.04258113  0.32125327  0.32903130     0.04500
C886        C  0.05266963  0.32964354  0.31911850     0.02600
H887        H  0.04923596  0.30278656  0.34654965     0.07700
H888        H  0.04945298  0.33818806  0.31013203     0.06500
N889        N  0.17336915  0.21220679  0.40724713    -0.27900
N890        N  0.18176278  0.20941407  0.39434818    -0.35700
C891        C  0.17687000  0.21914607  0.38272496     0.00500
C892        C  0.16470027  0.22851344  0.38852461     0.06500
C893        C  0.16280929  0.22374487  0.40414533    -0.06600
H894        H  0.18165815  0.21914096  0.37084271     0.07200
H895        H  0.15451271  0.22841007  0.41271352     0.08400
Cu896      Cu  0.19908200  0.19211412  0.39295320     0.44200
Cu897      Cu  0.17713834  0.20039542  0.42848518     0.42000
Cu898      Cu  0.20717377  0.16928616  0.42824861     0.43900
N899        N  0.21512133  0.17358647  0.39380535    -0.35300
N900        N  0.21801819  0.16508288  0.40662621    -0.29500
C901        C  0.22909048  0.15414590  0.40320879    -0.05600
C902        C  0.23342083  0.15585536  0.38743265     0.06600
C903        C  0.22423877  0.16831810  0.38189469     0.00400
H904        H  0.23382011  0.14581543  0.41172590     0.08100
H905        H  0.22411965  0.17329801  0.37009064     0.07100
N906        N  0.19569253  0.17715941  0.44847675    -0.36700
N907        N  0.18479064  0.18839475  0.44854861    -0.28900
C908        C  0.18058333  0.19140809  0.46360296    -0.04100
C909        C  0.18928579  0.18164026  0.47359280     0.04500
C910        C  0.19870346  0.17273251  0.46348506     0.02600
H911        H  0.17212028  0.20041552  0.46693754     0.07700
H912        H  0.20757643  0.16407847  0.46672516     0.06500
N913        N  0.34234003  0.10209027  0.29727587    -0.27900
N914        N  0.33485933  0.11525100  0.30120508    -0.35700
C915        C  0.34047165  0.12726805  0.29243866     0.00500
C916        C  0.35211161  0.12143406  0.28245552     0.06500
C917        C  0.35297745  0.10538579  0.28589316    -0.06600
H918        H  0.33636515  0.13936338  0.29339928     0.07200
H919        H  0.36054736  0.09664983  0.28038010     0.08400
Cu920      Cu  0.31732763  0.11646012  0.31820274     0.44200
Cu921      Cu  0.33734924  0.08032546  0.30737517     0.42000
Cu922      Cu  0.30694423  0.08037193  0.33815527     0.43900
N923        N  0.30029806  0.11520210  0.33570344    -0.35300
N924        N  0.29660848  0.10201947  0.34328464    -0.29500
C925        C  0.28510130  0.10516146  0.35384096    -0.05600
C926        C  0.28128710  0.12110210  0.35274339     0.06600
C927        C  0.29120292  0.12706727  0.34111605     0.00400
H928        H  0.27965003  0.09638463  0.36142414     0.08100
H929        H  0.29182683  0.13914471  0.33686889     0.07100
N930        N  0.31836440  0.06023545  0.33003506    -0.36700
N931        N  0.32935711  0.06021992  0.31889739    -0.28900
C932        C  0.33392406  0.04522836  0.31614168    -0.04100
C933        C  0.32539578  0.03525380  0.32602400     0.04500
C934        C  0.31564925  0.04524946  0.33466383     0.02600
H935        H  0.34274072  0.04192938  0.30746607     0.07700
H936        H  0.30690925  0.04193669  0.34341677     0.06500
N937        N  0.40621554  0.16590446  0.21980385    -0.27900
N938        N  0.39299254  0.17345580  0.21615186    -0.35700
C939        C  0.38118678  0.16803191  0.22530173     0.00500
C940        C  0.38721104  0.15644128  0.23522008     0.06500
C941        C  0.40313543  0.15535863  0.23136177    -0.06600
H942        H  0.36908980  0.17221911  0.22467473     0.07200
H943        H  0.41192975  0.14776527  0.23678655     0.08400
Cu944      Cu  0.39131872  0.19089233  0.19907494     0.44200
Cu945      Cu  0.42785390  0.17097107  0.20935464     0.42000
Cu946      Cu  0.42697579  0.20186834  0.17895427     0.43900
N947        N  0.39200527  0.20776860  0.18137558    -0.35300
N948        N  0.40505756  0.21169873  0.17371017    -0.29500
C949        C  0.40153880  0.22290975  0.16291891    -0.05600
C950        C  0.38547824  0.22626738  0.16394060     0.06600
C951        C  0.37985404  0.21639959  0.17578931     0.00400
H952        H  0.41011960  0.22842352  0.15516464     0.08100
H953        H  0.36779944  0.21544119  0.18002016     0.07100
N954        N  0.44744938  0.19087808  0.18701416    -0.36700
N955        N  0.44779942  0.17965269  0.19793258    -0.28900
C956        C  0.46295700  0.17562098  0.20075189    -0.04100
C957        C  0.47270826  0.18478056  0.19117609     0.04500
C958        C  0.46235884  0.19428919  0.18261861     0.02600
H959        H  0.46652449  0.16694003  0.20947652     0.07700
H960        H  0.46533138  0.20327961  0.17399620     0.06500
N961        N  0.17118786  0.39950601  0.21822993    -0.27900
N962        N  0.17836013  0.38623367  0.21406748    -0.35700
C963        C  0.17261026  0.37422099  0.22279893     0.00500
C964        C  0.16119112  0.38016078  0.23297727     0.06500
C965        C  0.16055979  0.39625424  0.22966657    -0.06600
H966        H  0.17661249  0.36208246  0.22187978     0.07200
H967        H  0.15336813  0.40507138  0.23555118     0.08400
Cu968      Cu  0.19608887  0.38507238  0.19714797     0.44200
Cu969      Cu  0.17723639  0.42148810  0.20888281     0.42000
Cu970      Cu  0.20858119  0.42145760  0.17874484     0.43900
N971        N  0.21356307  0.38620091  0.17996109    -0.35300
N972        N  0.21815903  0.39945672  0.17302086    -0.29500
C973        C  0.22968312  0.39604468  0.16251964    -0.05600
C974        C  0.23252850  0.37982792  0.16292858     0.06600
C975        C  0.22201817  0.37404432  0.17414885     0.00400
H976        H  0.23571326  0.40478815  0.15535116     0.08100
H977        H  0.22050159  0.36186824  0.17783858     0.07100
N978        N  0.19748753  0.44177107  0.18727541    -0.36700
N979        N  0.18629095  0.44179045  0.19822922    -0.28900
C980        C  0.18213919  0.45685892  0.20134886    -0.04100
C981        C  0.19110458  0.46688938  0.19189070     0.04500
C982        C  0.20067887  0.45682642  0.18310988     0.02600
H983        H  0.17322759  0.46018988  0.20991732     0.07700
H984        H  0.20960003  0.46014799  0.17454342     0.06500
N985        N  0.29444890  0.33402501  0.10854478    -0.27900
N986        N  0.29725967  0.32562668  0.12145692    -0.35700
C987        C  0.28798941  0.33094768  0.13325011     0.00500
C988        C  0.27887745  0.34338839  0.12755308     0.06500
C989        C  0.28334540  0.34500599  0.11180860    -0.06600
H990        H  0.28807491  0.32620183  0.14515768     0.07200
H991        H  0.27873061  0.35338311  0.10326771     0.08400
Cu992      Cu  0.31384103  0.30753445  0.12250504     0.44200
Cu993      Cu  0.30582231  0.32970080  0.08714508     0.42000
Cu994      Cu  0.33639402  0.29896482  0.08698897     0.43900
N995        N  0.33166515  0.29067690  0.12140451    -0.35300
N996        N  0.34009159  0.28763052  0.10857721    -0.29500
C997        C  0.35087536  0.27639456  0.11205109    -0.05600
C998        C  0.34915603  0.27212845  0.12785904     0.06600
C999        C  0.33681146  0.28147613  0.13334176     0.00400
H1000       H  0.35927173  0.27167329  0.10361694     0.08100
H1001       H  0.33201482  0.28183888  0.14520921     0.07100
N1002       N  0.32919911  0.31144442  0.06695939    -0.36700
N1003       N  0.31809661  0.32249167  0.06705663    -0.28900
C1004       C  0.31564127  0.32753702  0.05213980    -0.04100
C1005       C  0.32564708  0.31928263  0.04203766     0.04500
C1006       C  0.33410358  0.30920861  0.05195647     0.02600
H1007       H  0.30692120  0.33636231  0.04895184     0.07700
H1008       H  0.34281260  0.30046474  0.04854360     0.06500
N1009       N  0.72029937  0.33848665  0.10987737    -0.27900
N1010       N  0.71650056  0.33147689  0.12334241    -0.35700
C1011       C  0.72569011  0.33728663  0.13499464     0.00500
C1012       C  0.73586323  0.34852210  0.12858558     0.06500
C1013       C  0.73200380  0.34896170  0.11259574    -0.06600
H1014       H  0.72503115  0.33343525  0.14719581     0.07200
H1015       H  0.73752412  0.35604397  0.10346111     0.08400
Cu1016     Cu  0.69937319  0.31393234  0.12516781     0.44200
Cu1017     Cu  0.70985275  0.33293373  0.08833542     0.42000
Cu1018     Cu  0.67813083  0.30381142  0.08931975     0.43900
N1019       N  0.68160309  0.29697536  0.12413170    -0.35300
N1020       N  0.67357677  0.29351898  0.11112811    -0.29500
C1021       C  0.66283100  0.28223410  0.11448086    -0.05600
C1022       C  0.66422183  0.27829999  0.13036983     0.06600
C1023       C  0.67626733  0.28790839  0.13608142     0.00400
H1024       H  0.65483284  0.27708428  0.10587997     0.08100
H1025       H  0.68076159  0.28843388  0.14807905     0.07100
N1026       N  0.68623415  0.31452900  0.06878201    -0.36700
N1027       N  0.69782617  0.32504966  0.06839817    -0.28900
C1028       C  0.70059501  0.32914496  0.05325566    -0.04100
C1029       C  0.69026025  0.32077860  0.04357721     0.04500
C1030       C  0.68133213  0.31163451  0.05390262     0.02600
H1031       H  0.70978636  0.33728963  0.04960227     0.07700
H1032       H  0.67205038  0.30332376  0.05089761     0.06500
N1033       N  0.84632145  0.40206719  0.21723708    -0.27900
N1034       N  0.83887218  0.38890867  0.21319589    -0.35700
C1035       C  0.84409025  0.37695105  0.22230820     0.00500
C1036       C  0.85542393  0.38281738  0.23265290     0.06500
C1037       C  0.85657791  0.39881058  0.22901856    -0.06600
H1038       H  0.83981098  0.36490108  0.22147029     0.07200
H1039       H  0.86390966  0.40757179  0.23483659     0.08400
Cu1040     Cu  0.82156205  0.38777729  0.19588698     0.44200
Cu1041     Cu  0.84114039  0.42391127  0.20724206     0.42000
Cu1042     Cu  0.81158270  0.42376062  0.17537323     0.43900
N1043       N  0.80483964  0.38889731  0.17800735    -0.35300
N1044       N  0.80144794  0.40193809  0.17002791    -0.29500
C1045       C  0.78998769  0.39865600  0.15939549    -0.05600
C1046       C  0.78585646  0.38281890  0.16093824     0.06600
C1047       C  0.79555748  0.37704206  0.17284769     0.00400
H1048       H  0.78460023  0.40731348  0.15161705     0.08100
H1049       H  0.79578964  0.36512033  0.17755610     0.07100
N1050       N  0.82178058  0.44411546  0.18484734    -0.36700
N1051       N  0.83240321  0.44416233  0.19637575    -0.28900
C1052       C  0.83605202  0.45923706  0.20002746    -0.04100
C1053       C  0.82732254  0.46927248  0.19034056     0.04500
C1054       C  0.81840571  0.45917061  0.18087517     0.02600
H1055       H  0.84430348  0.46254369  0.20926196     0.07700
H1056       H  0.80996427  0.46241157  0.17179201     0.06500
N1057       N  0.90709146  0.33808682  0.29726509    -0.27900
N1058       N  0.89388038  0.33032351  0.30045495    -0.35700
C1059       C  0.88215434  0.33594268  0.29126444     0.00500
C1060       C  0.88822946  0.34789870  0.28179533     0.06500
C1061       C  0.90409340  0.34895049  0.28598739    -0.06600
H1062       H  0.87009589  0.33161077  0.29154318     0.07200
H1063       H  0.91294187  0.35672758  0.28094817     0.08400
Cu1064     Cu  0.89225102  0.31254509  0.31718618     0.44200
Cu1065     Cu  0.92869339  0.33298894  0.30790468     0.42000
Cu1066     Cu  0.92789862  0.30395080  0.33947654     0.43900
N1067       N  0.89325613  0.29640308  0.33554552    -0.35300
N1068       N  0.90612989  0.29356662  0.34400950    -0.29500
C1069       C  0.90276122  0.28259956  0.35506075    -0.05600
C1070       C  0.88702236  0.27823648  0.35337879     0.06600
C1071       C  0.88138352  0.28726265  0.34088490     0.00400
H1072       H  0.91128931  0.27785230  0.36338123     0.08100
H1073       H  0.86951935  0.28727398  0.33601834     0.07100
N1074       N  0.94848764  0.31447628  0.33124383    -0.36700
N1075       N  0.94879709  0.32499962  0.31966080    -0.28900
C1076       C  0.96392296  0.32909113  0.31680678    -0.04100
C1077       C  0.97370990  0.32075500  0.32711345     0.04500
C1078       C  0.96339815  0.31159237  0.33607841     0.02600
H1079       H  0.96743300  0.33740978  0.30772431     0.07700
H1080       H  0.96640394  0.30328744  0.34536091     0.06500
N1081       N  0.67265719  0.10877959  0.29951110    -0.27900
N1082       N  0.67932748  0.12212392  0.30428412    -0.35700
C1083       C  0.67324409  0.13424283  0.29592790     0.00500
C1084       C  0.66213839  0.12827832  0.28538990     0.06500
C1085       C  0.66205662  0.11207338  0.28805654    -0.06600
H1086       H  0.67673169  0.14648420  0.29742722     0.07200
H1087       H  0.65519188  0.10323327  0.28180236     0.08400
Cu1088     Cu  0.69668099  0.12336229  0.32164070     0.44200
Cu1089     Cu  0.67906181  0.08661127  0.30799157     0.42000
Cu1090     Cu  0.70921885  0.08620942  0.33868276     0.43900
N1091       N  0.71381196  0.12156524  0.33917215    -0.35300
N1092       N  0.71816400  0.10801478  0.34571023    -0.29500
C1093       C  0.72973925  0.11083954  0.35632826    -0.05600
C1094       C  0.73296066  0.12694212  0.35634353     0.06600
C1095       C  0.72258567  0.13334919  0.34532818     0.00400
H1096       H  0.73582965  0.10174016  0.36300308     0.08100
H1097       H  0.72160086  0.14564703  0.34184774     0.07100
N1098       N  0.69973544  0.06590568  0.32852916    -0.36700
N1099       N  0.68873639  0.06603830  0.31737704    -0.28900
C1100       C  0.68550867  0.05103399  0.31309396    -0.04100
C1101       C  0.69494272  0.04085774  0.32197016     0.04500
C1102       C  0.70380845  0.05081795  0.33162895     0.02600
H1103       H  0.67705330  0.04789094  0.30398941     0.07700
H1104       H  0.71269757  0.04746673  0.34023184     0.06500
N1105       N  0.84200241  0.21733326  0.40873119    -0.27900
N1106       N  0.83596177  0.21177577  0.39539745    -0.35700
C1107       C  0.84202608  0.21990547  0.38314635     0.00500
C1108       C  0.85244997  0.23114318  0.38902802     0.06500
C1109       C  0.85215598  0.22912013  0.40532298    -0.06600
H1110       H  0.83898607  0.21775852  0.37087923     0.07200
H1111       H  0.85850949  0.23594692  0.41412191     0.08400
Cu1112     Cu  0.81935802  0.19381887  0.39434211     0.44200
Cu1113     Cu  0.83566450  0.20904152  0.43089809     0.42000
Cu1114     Cu  0.80616710  0.17747666  0.43140603     0.43900
N1115       N  0.80197268  0.17666781  0.39603819    -0.35300
N1116       N  0.79710972  0.17051687  0.40958284    -0.29500
C1117       C  0.78527501  0.16022771  0.40661734    -0.05600
C1118       C  0.78248552  0.16001519  0.39041199     0.06600
C1119       C  0.79335378  0.17057610  0.38412111     0.00400
H1120       H  0.77878820  0.15386734  0.41565527     0.08100
H1121       H  0.79478814  0.17381724  0.37180361     0.07100
N1122       N  0.81646231  0.18718867  0.45156962    -0.36700
N1123       N  0.82709020  0.19868407  0.45138510    -0.28900
C1124       C  0.83100513  0.20242676  0.46636940    -0.04100
C1125       C  0.82242485  0.19282531  0.47659143     0.04500
C1126       C  0.81334379  0.18330512  0.46668846     0.02600
H1127       H  0.83942035  0.21157517  0.46947254     0.07700
H1128       H  0.80489402  0.17430802  0.47009606     0.06500
N1129       N  0.60825143  0.21814460  0.17622610    -0.27900
N1130       N  0.62134391  0.21407313  0.18378848    -0.35700
C1131       C  0.63355877  0.22246432  0.17803745     0.00500
C1132       C  0.62796824  0.23238507  0.16620882     0.06500
C1133       C  0.61182472  0.22927952  0.16537621    -0.06600
H1134       H  0.64563411  0.22127374  0.18216882     0.07200
H1135       H  0.60323419  0.23482585  0.15763999     0.08400
Cu1136     Cu  0.62229472  0.19732317  0.20155787     0.44200
Cu1137     Cu  0.58627556  0.20822532  0.18125775     0.42000
Cu1138     Cu  0.58672978  0.17601701  0.21040398     0.43900
N1139       N  0.62105009  0.17989700  0.21863956    -0.35300
N1140       N  0.60806977  0.17175659  0.22177578    -0.29500
C1141       C  0.61121431  0.16128850  0.23339012    -0.05600
C1142       C  0.62696433  0.16300458  0.23781822     0.06600
C1143       C  0.63278547  0.17493368  0.22816662     0.00400
H1144       H  0.60257632  0.15325481  0.23839427     0.08100
H1145       H  0.64471055  0.17961879  0.22791151     0.07100
N1146       N  0.56656700  0.18405244  0.19891676    -0.36700
N1147       N  0.56628895  0.19581737  0.18857692    -0.28900
C1148       C  0.55121018  0.19837964  0.18407776    -0.04100
C1149       C  0.54145891  0.18771032  0.19196193     0.04500
C1150       C  0.55171941  0.17882143  0.20124687     0.02600
H1151       H  0.54769636  0.20751913  0.17581424     0.07700
H1152       H  0.54871032  0.16942500  0.20941183     0.06500
C1153       C  0.63882770  0.13099770  0.26710117    -0.13900
C1154       C  0.65295327  0.13720417  0.27338630     0.08200
C1155       C  0.65834480  0.15199177  0.26799373    -0.13900
C1156       C  0.64988590  0.16033854  0.25647875    -0.13900
C1157       C  0.63576018  0.15415913  0.25017405     0.08200
C1158       C  0.63026232  0.13943703  0.25567615    -0.13900
H1159       H  0.63431152  0.11967608  0.27109206     0.12200
H1160       H  0.66924603  0.15705224  0.27248131     0.12200
H1161       H  0.65440145  0.17170295  0.25262903     0.12200
H1162       H  0.61947211  0.13430424  0.25100505     0.12200
C1163       C  0.75216040  0.14933462  0.35908161    -0.13900
C1164       C  0.74559134  0.13532637  0.36519248     0.08200
C1165       C  0.75133108  0.12936843  0.37965889    -0.13900
C1166       C  0.76327508  0.13740464  0.38793792    -0.13900
C1167       C  0.76989209  0.15137594  0.38174619     0.08200
C1168       C  0.76425086  0.15719669  0.36719720    -0.13900
H1169       H  0.74812149  0.15413730  0.34788756     0.12200
H1170       H  0.74645333  0.11861442  0.38467298     0.12200
H1171       H  0.76744199  0.13259307  0.39908397     0.12200
H1172       H  0.76899032  0.16799435  0.36215808     0.12200
C1173       C  0.88319530  0.26188762  0.37784750    -0.13900
C1174       C  0.87825378  0.26616794  0.36253488     0.08200
C1175       C  0.86486398  0.25877129  0.35597768    -0.13900
C1176       C  0.85658936  0.24730507  0.36453540    -0.13900
C1177       C  0.86142720  0.24310354  0.37990450     0.08200
C1178       C  0.87480557  0.25052641  0.38648968    -0.13900
H1179       H  0.89342446  0.26745049  0.38324207     0.12200
H1180       H  0.86084919  0.26169591  0.34414657     0.12200
H1181       H  0.84626932  0.24191448  0.35915217     0.12200
H1182       H  0.87889753  0.24747277  0.39826109     0.12200
C1183       C  0.85774320  0.35957163  0.25095317    -0.13900
C1184       C  0.86382123  0.37401207  0.24532260     0.08200
C1185       C  0.87790558  0.37993791  0.25195848    -0.13900
C1186       C  0.88582975  0.37149636  0.26383558    -0.13900
C1187       C  0.87975352  0.35703075  0.26941779     0.08200
C1188       C  0.86557503  0.35121881  0.26290056    -0.13900
H1189       H  0.84683489  0.35473219  0.24625353     0.12200
H1190       H  0.88293454  0.39099710  0.24785339     0.12200
H1191       H  0.89665888  0.37636737  0.26869378     0.12200
H1192       H  0.86060254  0.34007398  0.26682917     0.12200
C1193       C  0.64000208  0.26140837  0.13399440    -0.13900
C1194       C  0.65498662  0.26636775  0.13932846     0.08200
C1195       C  0.66106918  0.25990664  0.15340994    -0.13900
C1196       C  0.65235077  0.24880287  0.16202247    -0.13900
C1197       C  0.63727080  0.24396947  0.15683120     0.08200
C1198       C  0.63119852  0.25038116  0.14269895    -0.13900
H1199       H  0.63495049  0.26622001  0.12322384     0.12200
H1200       H  0.67264039  0.26333312  0.15776508     0.12200
H1201       H  0.65739655  0.24421260  0.17288203     0.12200
H1202       H  0.61968644  0.24683828  0.13828732     0.12200
C1203       C  0.76535055  0.36146288  0.16004327    -0.13900
C1204       C  0.77309917  0.37414614  0.15257710     0.08200
C1205       C  0.76847540  0.37847368  0.13718935    -0.13900
C1206       C  0.75640892  0.37017295  0.12937302    -0.13900
C1207       C  0.74858440  0.35748607  0.13686617     0.08200
C1208       C  0.75318785  0.35329562  0.15233022    -0.13900
H1209       H  0.76853523  0.35795609  0.17197137     0.12200
H1210       H  0.77431505  0.38815374  0.13112252     0.12200
H1211       H  0.75318638  0.37380393  0.11750609     0.12200
H1212       H  0.74755099  0.34358818  0.15850327     0.12200
C1213       C  0.25140102  0.37686962  0.13999056    -0.13900
C1214       C  0.24437987  0.37059453  0.15373790     0.08200
C1215       C  0.24878467  0.35530460  0.15868658    -0.13900
C1216       C  0.25995778  0.34654549  0.15019214    -0.13900
C1217       C  0.26694781  0.35277190  0.13643761     0.08200
C1218       C  0.26249334  0.36801343  0.13137983    -0.13900
H1219       H  0.24824009  0.38856275  0.13577893     0.12200
H1220       H  0.24375933  0.35009359  0.16925938     0.12200
H1221       H  0.26299029  0.33480266  0.15436225     0.12200
H1222       H  0.26772339  0.37320004  0.12088436     0.12200
C1223       C  0.49920855  0.17426939  0.19991171    -0.13900
C1224       C  0.49032359  0.18508011  0.19086300     0.08200
C1225       C  0.49846468  0.19642097  0.18176776    -0.13900
C1226       C  0.51500563  0.19714343  0.18196638    -0.13900
C1227       C  0.52388519  0.18654114  0.19125913     0.08200
C1228       C  0.51575547  0.17498846  0.20010679    -0.13900
H1229       H  0.49345297  0.16525563  0.20696292     0.12200
H1230       H  0.49213525  0.20495571  0.17460771     0.12200
H1231       H  0.52074424  0.20617910  0.17493368     0.12200
H1232       H  0.52208622  0.16650084  0.20732232     0.12200
C1233       C  0.38163294  0.24323820  0.13980396    -0.13900
C1234       C  0.37629426  0.23802599  0.15467761     0.08200
C1235       C  0.36202165  0.24411619  0.16065516    -0.13900
C1236       C  0.35327280  0.25517108  0.15197311    -0.13900
C1237       C  0.35851837  0.26034971  0.13703124     0.08200
C1238       C  0.37280527  0.25422160  0.13103956    -0.13900
H1239       H  0.39253853  0.23869348  0.13483099     0.12200
H1240       H  0.35764820  0.24048024  0.17214631     0.12200
H1241       H  0.34232027  0.25951994  0.15698539     0.12200
H1242       H  0.37728510  0.25797796  0.11963708     0.12200
C1243       C  0.36456815  0.15381897  0.25404375    -0.13900
C1244       C  0.37847130  0.14750664  0.24747507     0.08200
C1245       C  0.38380564  0.13260792  0.25261911    -0.13900
C1246       C  0.37525186  0.12409219  0.26396851    -0.13900
C1247       C  0.36129976  0.13040259  0.27050684     0.08200
C1248       C  0.35611390  0.14539742  0.26546361    -0.13900
H1249       H  0.36024346  0.16535126  0.25046361     0.12200
H1250       H  0.39444703  0.12741650  0.24770447     0.12200
H1251       H  0.37964801  0.11262897  0.26766612     0.12200
H1252       H  0.34538937  0.15060699  0.27014422     0.12200
C1253       C  0.25209962  0.13277771  0.38480286    -0.13900
C1254       C  0.24555201  0.14676769  0.37852476     0.08200
C1255       C  0.25081790  0.15210287  0.36364951    -0.13900
C1256       C  0.26241418  0.14376862  0.35533581    -0.13900
C1257       C  0.26896363  0.12982924  0.36162194     0.08200
C1258       C  0.26363669  0.12436199  0.37640390    -0.13900
H1259       H  0.24829826  0.12824188  0.39616876     0.12200
H1260       H  0.24615424  0.16282907  0.35841507     0.12200
H1261       H  0.26612462  0.14820200  0.34389010     0.12200
H1262       H  0.26852778  0.11369599  0.38159317     0.12200
C1263       C  0.01621730  0.31150424  0.33909506    -0.13900
C1264       C  0.02493674  0.32163313  0.32914497     0.08200
C1265       C  0.01658928  0.33180558  0.31890200    -0.28300
C1266       C  0.00004078  0.33159917  0.31834841    -0.13900
C1267       C  0.99132251  0.32124862  0.32805303     0.08200
C1268       C  0.99964377  0.31130376  0.33854623    -0.13900
H1269       H  0.02212430  0.30354006  0.34721619     0.12200
H1270       H  0.02275782  0.33989077  0.31112267     0.12200
H1271       H  0.99416461  0.33955302  0.31019832     0.12200
H1272       H  0.99343708  0.30319374  0.34627503     0.12200
C1273       C  0.12990862  0.36889904  0.26327008    -0.13900
C1274       C  0.13623876  0.35488950  0.26971736     0.08200
C1275       C  0.15075268  0.34923458  0.26384187    -0.13900
C1276       C  0.15871204  0.35733604  0.25179942    -0.13900
C1277       C  0.15245974  0.37139943  0.24545149     0.08200
C1278       C  0.13797796  0.37711050  0.25132618    -0.13900
H1279       H  0.11880376  0.37364863  0.26755016     0.12200
H1280       H  0.15595086  0.33844032  0.26840497     0.12200
H1281       H  0.16991254  0.35268251  0.24765496     0.12200
H1282       H  0.13280932  0.38786597  0.24661255     0.12200
C1283       C  0.15329685  0.25915417  0.35768909    -0.13900
C1284       C  0.13815380  0.26385678  0.36280134     0.08200
C1285       C  0.13187452  0.25687634  0.37656624    -0.13900
C1286       C  0.14053141  0.24551036  0.38500071    -0.13900
C1287       C  0.15560926  0.24076680  0.37979773     0.08200
C1288       C  0.16188830  0.24772931  0.36605407    -0.13900
H1289       H  0.15853924  0.26415129  0.34712375     0.12200
H1290       H  0.12030594  0.26022549  0.38092972     0.12200
H1291       H  0.13529562  0.24029547  0.39547781     0.12200
H1292       H  0.17352352  0.24446185  0.36178528     0.12200
C1293       C  0.81616164  0.51188532  0.18104333    -0.13900
C1294       C  0.82691231  0.52051374  0.19041787     0.08200
C1295       C  0.83796213  0.51209306  0.19964149    -0.13900
C1296       C  0.83813797  0.49551290  0.19959618    -0.13900
C1297       C  0.82728503  0.48690323  0.19030895     0.08200
C1298       C  0.81633665  0.49533544  0.18100059    -0.13900
H1299       H  0.80743944  0.51782530  0.17377640     0.12200
H1300       H  0.84650572  0.51823664  0.20696056     0.12200
H1301       H  0.84684301  0.48951339  0.20684614     0.12200
H1302       H  0.80773640  0.48922398  0.17372531     0.12200
C1303       C  0.86541320  0.65797491  0.26083545    -0.13900
C1304       C  0.88033041  0.65253769  0.26586987     0.08200
C1305       C  0.88619243  0.63825970  0.25965326    -0.13900
C1306       C  0.87721828  0.62950371  0.24881176    -0.13900
C1307       C  0.86225521  0.63490937  0.24387644     0.08200
C1308       C  0.85650412  0.64928851  0.24994330    -0.13900
H1309       H  0.86058147  0.66899971  0.26522350     0.12200
H1310       H  0.89760588  0.63369828  0.26331550     0.12200
H1311       H  0.88205946  0.61854542  0.24425746     0.12200
H1312       H  0.84499541  0.65376949  0.24649124     0.12200
C1313       C  0.87893954  0.76170838  0.37965924    -0.13900
C1314       C  0.86449230  0.76761512  0.37383389     0.08200
C1315       C  0.85886448  0.76213906  0.35915115    -0.13900
C1316       C  0.86741486  0.75095807  0.35052032    -0.13900
C1317       C  0.88185972  0.74505337  0.35630238     0.08200
C1318       C  0.88759382  0.75059860  0.37092453    -0.13900
H1319       H  0.88364347  0.76575888  0.39088715     0.12200
H1320       H  0.84772519  0.76631168  0.35435728     0.12200
H1321       H  0.86272685  0.74705467  0.33923508     0.12200
H1322       H  0.89864330  0.74619710  0.37573742     0.12200
C1323       C  0.70780611  0.99817432  0.32879053    -0.13900
C1324       C  0.69757652  0.98976423  0.31866351     0.08200
C1325       C  0.68625340  0.99831324  0.30991006    -0.13900
C1326       C  0.68532936  0.01481228  0.31107109    -0.13900
C1327       C  0.69569836  0.02325448  0.32102636     0.08200
C1328       C  0.70688442  0.01468497  0.32995105    -0.13900
H1329       H  0.71670863  0.99208875  0.33572200     0.12200
H1330       H  0.67803259  0.99232755  0.30210790     0.12200
H1331       H  0.67645094  0.02087739  0.30409618     0.12200
H1332       H  0.71509672  0.02066733  0.33776256     0.12200
C1333       C  0.66913607  0.86466245  0.25116235    -0.13900
C1334       C  0.66338630  0.87861706  0.25813241     0.08200
C1335       C  0.64806643  0.88385895  0.25423045    -0.13900
C1336       C  0.63855750  0.87510136  0.24380744    -0.13900
C1337       C  0.64432530  0.86112591  0.23684326     0.08200
C1338       C  0.65976804  0.85608888  0.24053452    -0.13900
H1339       H  0.68093042  0.86039136  0.25387114     0.12200
H1340       H  0.64329436  0.89452383  0.25951435     0.12200
H1341       H  0.62673647  0.87931425  0.24113322     0.12200
H1342       H  0.66453153  0.84531134  0.23548979     0.12200
C1343       C  0.75504514  0.86020291  0.35035708    -0.13900
C1344       C  0.74962572  0.87506418  0.35551675     0.08200
C1345       C  0.75516091  0.88100778  0.37007511    -0.13900
C1346       C  0.76598942  0.87232588  0.37918216    -0.13900
C1347       C  0.77162353  0.85761109  0.37382680     0.08200
C1348       C  0.76594307  0.85161690  0.35936724    -0.13900
H1349       H  0.75113228  0.85527109  0.33918673     0.12200
H1350       H  0.75112701  0.89235380  0.37446652     0.12200
H1351       H  0.77016973  0.87729207  0.39024837     0.12200
H1352       H  0.76987069  0.84023685  0.35497017     0.12200
C1353       C  0.65650285  0.75604969  0.13287358    -0.13900
C1354       C  0.65391784  0.73978427  0.13510297     0.08200
C1355       C  0.64309738  0.73475279  0.14668229    -0.13900
C1356       C  0.63487712  0.74585514  0.15582944    -0.13900
C1357       C  0.63780804  0.76211702  0.15391576     0.08200
C1358       C  0.64871046  0.76712615  0.14240195    -0.13900
H1359       H  0.66489811  0.76015552  0.12408439     0.12200
H1360       H  0.64095808  0.72223866  0.14857411     0.12200
H1361       H  0.62655348  0.74173855  0.16468106     0.12200
H1362       H  0.65108215  0.77962105  0.14068068     0.12200
C1363       C  0.74801719  0.65306177  0.15308625    -0.13900
C1364       C  0.74404646  0.64802560  0.13772191     0.08200
C1365       C  0.75146411  0.63448570  0.13152172    -0.13900
C1366       C  0.76255826  0.62608823  0.14055537    -0.13900
C1367       C  0.76666340  0.63124140  0.15585138     0.08200
C1368       C  0.75929432  0.64483156  0.16200509    -0.13900
H1369       H  0.74260917  0.66352794  0.15814335     0.12200
H1370       H  0.74857815  0.63028320  0.11974605     0.12200
H1371       H  0.76811524  0.61572543  0.13544771     0.12200
H1372       H  0.76212627  0.64904612  0.17378741     0.12200
C1373       C  0.33349444  0.99253191  0.31485753    -0.13900
C1374       C  0.32583431  0.98421176  0.32708390     0.08200
C1375       C  0.31855609  0.99286300  0.33929562    -0.13900
C1376       C  0.31861361  0.00941470  0.33907893    -0.13900
C1377       C  0.32596297  0.01771342  0.32665582     0.08200
C1378       C  0.33355905  0.00906684  0.31464798    -0.13900
H1379       H  0.33919321  0.98635221  0.30520315     0.12200
H1380       H  0.31273783  0.98690846  0.34903384     0.12200
H1381       H  0.31285612  0.01565573  0.34866805     0.12200
H1382       H  0.33928499  0.01500323  0.30484462     0.12200
C1383       C  0.50218987  0.80239018  0.19048066    -0.13900
C1384       C  0.49383339  0.81379487  0.19927343     0.08200
C1385       C  0.50250482  0.82495016  0.20811029    -0.13900
C1386       C  0.51907155  0.82476223  0.20808910    -0.13900
C1387       C  0.52743219  0.81339656  0.19925154     0.08200
C1388       C  0.51875237  0.80219900  0.19046189    -0.13900
H1389       H  0.49600626  0.79352546  0.18359483     0.12200
H1390       H  0.49656318  0.83396524  0.21499218     0.12200
H1391       H  0.52525665  0.83354884  0.21507169     0.12200
H1392       H  0.52467364  0.79326642  0.18345990     0.12200
C1393       C  0.38569227  0.86846327  0.25669472    -0.13900
C1394       C  0.38014720  0.85396253  0.25067067     0.08200
C1395       C  0.36555717  0.84805135  0.25606637    -0.13900
C1396       C  0.35661822  0.85649514  0.26710008    -0.13900
C1397       C  0.36196782  0.87114139  0.27289772     0.08200
C1398       C  0.37662911  0.87703233  0.26762312    -0.13900
H1399       H  0.39687698  0.87333907  0.25274790     0.12200
H1400       H  0.36102757  0.83682508  0.25183589     0.12200
H1401       H  0.34535865  0.85164405  0.27084814     0.12200
H1402       H  0.38114817  0.88821383  0.27199100     0.12200
C1403       C  0.35925991  0.74415779  0.15661915    -0.13900
C1404       C  0.36420397  0.73939935  0.14145075     0.08200
C1405       C  0.37770439  0.74655701  0.13480993    -0.13900
C1406       C  0.38607701  0.75817340  0.14317978    -0.13900
C1407       C  0.38098744  0.76301399  0.15825280     0.08200
C1408       C  0.36750311  0.75589001  0.16487889    -0.13900
H1409       H  0.34888402  0.73900034  0.16208847     0.12200
H1410       H  0.38191084  0.74311499  0.12320515     0.12200
H1411       H  0.39640256  0.76351753  0.13776408     0.12200
H1412       H  0.36339716  0.75924739  0.17655231     0.12200
C1413       C  0.18352078  0.50966185  0.20367375    -0.13900
C1414       C  0.19080502  0.51808345  0.19128814     0.08200
C1415       C  0.19807485  0.50951372  0.17901375    -0.13900
C1416       C  0.19809427  0.49292900  0.17915151    -0.13900
C1417       C  0.19087077  0.48450550  0.19158514     0.08200
C1418       C  0.18355620  0.49309684  0.20382301    -0.13900
H1419       H  0.17798210  0.51582504  0.21344213     0.12200
H1420       H  0.20365803  0.51559201  0.16920423     0.12200
H1421       H  0.20369447  0.48674786  0.16942910     0.12200
H1422       H  0.17803172  0.48707297  0.21369202     0.12200
C1423       C  0.25493480  0.64499369  0.16440266    -0.13900
C1424       C  0.24832609  0.63104789  0.15814873     0.08200
C1425       C  0.25350285  0.62570986  0.14325395    -0.13900
C1426       C  0.26503146  0.63411879  0.13481507    -0.13900
C1427       C  0.27176026  0.64797653  0.14114683     0.08200
C1428       C  0.26655305  0.65331707  0.15603790    -0.13900
H1429       H  0.25131019  0.64940404  0.17587785     0.12200
H1430       H  0.24857004  0.61508964  0.13802440     0.12200
H1431       H  0.26879860  0.62962055  0.12342124     0.12200
H1432       H  0.27134104  0.66401380  0.16123659     0.12200
C1433       C  0.26424553  0.87739366  0.37900005    -0.13900
C1434       C  0.27003344  0.87160013  0.36451242     0.08200
C1435       C  0.26423384  0.85709570  0.35877100    -0.13900
C1436       C  0.25292042  0.84857506  0.36727940    -0.13900
C1437       C  0.24712692  0.85430656  0.38178919     0.08200
C1438       C  0.25295072  0.86880776  0.38757946    -0.13900
H1439       H  0.26852848  0.88848720  0.38380235     0.12200
H1440       H  0.26827847  0.85233567  0.34758464     0.12200
H1441       H  0.24884026  0.83742487  0.36245925     0.12200
H1442       H  0.24870659  0.87363811  0.39866089     0.12200
C1443       C  0.00163938  0.69194219  0.33688905    -0.13900
C1444       C  0.99355484  0.68505188  0.32404406     0.08200
C1445       C  0.00239818  0.67728490  0.31227985    -0.13900
C1446       C  0.01892165  0.67662152  0.31321530    -0.13900
C1447       C  0.02702022  0.68370993  0.32593706     0.08200
C1448       C  0.01817037  0.69128716  0.33781866    -0.13900
H1449       H  0.99523215  0.69783370  0.34628751     0.12200
H1450       H  0.99662753  0.67196379  0.30214005     0.12200
H1451       H  0.02532241  0.67081164  0.30376339     0.12200
H1452       H  0.02397777  0.69668835  0.34789951     0.12200
C1453       C  0.13449997  0.63005859  0.26909358    -0.13900
C1454       C  0.14031036  0.64441715  0.27519341     0.08200
C1455       C  0.15448874  0.65060234  0.26909166    -0.13900
C1456       C  0.16261085  0.64270793  0.25705386    -0.13900
C1457       C  0.15681822  0.62836196  0.25086943     0.08200
C1458       C  0.14270524  0.62207163  0.25711070    -0.13900
H1459       H  0.12366249  0.62492978  0.27364275     0.12200
H1460       H  0.15922480  0.66170685  0.27342024     0.12200
H1461       H  0.17348322  0.64788864  0.25269247     0.12200
H1462       H  0.13785261  0.61108046  0.25264124     0.12200
C1463       C  0.15410013  0.74334153  0.35988327    -0.13900
C1464       C  0.13943256  0.73783731  0.36548712     0.08200
C1465       C  0.13321352  0.74436832  0.37947259    -0.13900
C1466       C  0.14161032  0.75600852  0.38779262    -0.13900
C1467       C  0.15628943  0.76149826  0.38217437     0.08200
C1468       C  0.16238466  0.75509693  0.36807606    -0.13900
H1469       H  0.15915010  0.73868538  0.34906268     0.12200
H1470       H  0.12196973  0.74032708  0.38412619     0.12200
H1471       H  0.13653562  0.76078293  0.39855084     0.12200
H1472       H  0.17369869  0.75896656  0.36345876     0.12200
C1473       C  0.18183856  0.19367274  0.51631483    -0.13900
C1474       C  0.19095168  0.18255821  0.52476077     0.08200
C1475       C  0.19909583  0.17082140  0.51621735    -0.13900
C1476       C  0.19836440  0.17037519  0.49966999    -0.13900
C1477       C  0.18948079  0.18166431  0.49121263     0.08200
C1478       C  0.18110954  0.19322862  0.49977778    -0.13900
H1479       H  0.17540831  0.20292879  0.52238626     0.12200
H1480       H  0.20609516  0.16193707  0.52224823     0.12200
H1481       H  0.20484268  0.16116801  0.49357123     0.12200
H1482       H  0.17415042  0.20216016  0.49377783     0.12200
C1483       C  0.33801395  0.31208389  0.99929449    -0.13900
C1484       C  0.32640761  0.32050859  0.99079180     0.08200
C1485       C  0.31495214  0.32905025  0.99933098    -0.13900
C1486       C  0.31487667  0.32887219  0.01590363    -0.13900
C1487       C  0.32625757  0.32014763  0.02441891     0.08200
C1488       C  0.33794666  0.31191346  0.01587937    -0.13900
H1489       H  0.34717977  0.30555016  0.99318580     0.12200
H1490       H  0.30578367  0.33565089  0.99327107     0.12200
H1491       H  0.30565300  0.33536125  0.02195977     0.12200
H1492       H  0.34704986  0.30523151  0.02194850     0.12200
C1493       C  0.38652550  0.24772716  0.87654261    -0.13900
C1494       C  0.38182567  0.24267745  0.86139579     0.08200
C1495       C  0.36824852  0.24943943  0.85449753    -0.13900
C1496       C  0.35949642  0.26091227  0.86260548    -0.13900
C1497       C  0.36400826  0.26576326  0.87788715     0.08200
C1498       C  0.37765561  0.25907542  0.88474239    -0.13900
H1499       H  0.39690066  0.24271260  0.88219053     0.12200
H1500       H  0.36440706  0.24595473  0.84276310     0.12200
H1501       H  0.34904037  0.26576300  0.85697409     0.12200
H1502       H  0.38156726  0.26265758  0.89642090     0.12200
C1503       C  0.26735660  0.12636653  0.64069774    -0.13900
C1504       C  0.27364726  0.13254157  0.65485893     0.08200
C1505       C  0.26838556  0.14747156  0.66004036    -0.13900
C1506       C  0.25711266  0.15596121  0.65137323    -0.13900
C1507       C  0.25081397  0.14980552  0.63723919     0.08200
C1508       C  0.25611688  0.13493055  0.63195613    -0.13900
H1509       H  0.27115694  0.11495990  0.63626916     0.12200
H1510       H  0.27283002  0.15263516  0.67089624     0.12200
H1511       H  0.25345262  0.16743981  0.65574085     0.12200
H1512       H  0.25145449  0.12979034  0.62116684     0.12200
C1513       C  0.37886327  0.12685167  0.75399477    -0.13900
C1514       C  0.36407175  0.13238701  0.74867900     0.08200
C1515       C  0.35815703  0.14662937  0.75491405    -0.13900
C1516       C  0.36680739  0.15514213  0.76617996    -0.13900
C1517       C  0.38164884  0.14968035  0.77145934     0.08200
C1518       C  0.38758186  0.13543238  0.76521089    -0.13900
H1519       H  0.38382843  0.11598165  0.74936352     0.12200
H1520       H  0.34675655  0.15118937  0.75120831     0.12200
H1521       H  0.36185840  0.16609859  0.77059830     0.12200
H1522       H  0.39891098  0.13080697  0.76904414     0.12200
C1523       C  0.25483253  0.38140741  0.87498355    -0.13900
C1524       C  0.25081190  0.37673163  0.85949463     0.08200
C1525       C  0.25874982  0.36377186  0.85275934    -0.13900
C1526       C  0.27034976  0.35561170  0.86128349    -0.13900
C1527       C  0.27428727  0.36010976  0.87684036     0.08200
C1528       C  0.26640024  0.37314329  0.88359199    -0.13900
H1529       H  0.24889694  0.39130733  0.88055577     0.12200
H1530       H  0.25610990  0.35994289  0.84080806     0.12200
H1531       H  0.27603544  0.34561564  0.85565658     0.12200
H1532       H  0.26916201  0.37701394  0.89550173     0.12200
C1533       C  0.15730530  0.26122227  0.65780579    -0.13900
C1534       C  0.14232953  0.26616159  0.65242611     0.08200
C1535       C  0.13610307  0.25933313  0.63856636    -0.13900
C1536       C  0.14465063  0.24778919  0.63031232    -0.13900
C1537       C  0.15953446  0.24272721  0.63583048     0.08200
C1538       C  0.16577482  0.24960981  0.64963974    -0.13900
H1539       H  0.16245326  0.26613234  0.66847421     0.12200
H1540       H  0.12466749  0.26294888  0.63401712     0.12200
H1541       H  0.13947270  0.24267676  0.61974665     0.12200
H1542       H  0.17727437  0.24612086  0.65412745     0.12200
C1543       C  0.15891928  0.35580464  0.74538839    -0.13900
C1544       C  0.14339433  0.36032944  0.74130907     0.08200
C1545       C  0.13670722  0.37356196  0.74889470    -0.13900
C1546       C  0.14525639  0.38190827  0.76040951    -0.13900
C1547       C  0.16063933  0.37714530  0.76468034     0.08200
C1548       C  0.16739988  0.36406797  0.75696350    -0.13900
H1549       H  0.16452359  0.34569916  0.73987621     0.12200
H1550       H  0.12485333  0.37749511  0.74599970     0.12200
H1551       H  0.13967567  0.39190690  0.76616836     0.12200
H1552       H  0.17929588  0.36020762  0.75981531     0.12200
C1553       C  0.18155655  0.81034664  0.51995523    -0.13900
C1554       C  0.19178632  0.82063539  0.52818404     0.08200
C1555       C  0.20191064  0.83047425  0.51933815    -0.13900
C1556       C  0.20185183  0.82999430  0.50276523    -0.13900
C1557       C  0.19165882  0.81966832  0.49454465     0.08200
C1558       C  0.18150164  0.80986403  0.50338481    -0.13900
H1559       H  0.17351842  0.80260771  0.52623869     0.12200
H1560       H  0.21001006  0.83853210  0.52514207     0.12200
H1561       H  0.20992338  0.83769232  0.49647219     0.12200
H1562       H  0.17340998  0.80180131  0.49757273     0.12200
C1563       C  0.19973901  0.51266411  0.83797968    -0.13900
C1564       C  0.18995895  0.52123462  0.82754011     0.08200
C1565       C  0.17992538  0.51275344  0.81728116    -0.13900
C1566       C  0.17992814  0.49618719  0.81721502    -0.13900
C1567       C  0.18997147  0.48761670  0.82740017     0.08200
C1568       C  0.19974445  0.49609774  0.83791157    -0.13900
H1569       H  0.20754031  0.51867421  0.84618063     0.12200
H1570       H  0.17215647  0.51883352  0.80909919     0.12200
H1571       H  0.17212861  0.49018137  0.80901054     0.12200
H1572       H  0.20758294  0.49002234  0.84602967     0.12200
C1573       C  0.13281354  0.75014151  0.64455433    -0.13900
C1574       C  0.13794495  0.74496916  0.65952630     0.08200
C1575       C  0.15206543  0.75117091  0.66579680    -0.13900
C1576       C  0.16093525  0.76221376  0.65724742    -0.13900
C1577       C  0.15597010  0.76722734  0.64215129     0.08200
C1578       C  0.14177287  0.76109446  0.63591981    -0.13900
H1579       H  0.12201389  0.74553332  0.63937622     0.12200
H1580       H  0.15625412  0.74757674  0.67738112     0.12200
H1581       H  0.17181197  0.76660935  0.66242569     0.12200
H1582       H  0.13750460  0.76478364  0.62440063     0.12200
C1583       C  0.12974786  0.63897593  0.75751686    -0.13900
C1584       C  0.13626005  0.65278006  0.75081559     0.08200
C1585       C  0.15145522  0.65761370  0.75566524    -0.13900
C1586       C  0.15988801  0.64894660  0.76695864    -0.13900
C1587       C  0.15341355  0.63515112  0.77362483     0.08200
C1588       C  0.13827896  0.63020184  0.76874384    -0.13900
H1589       H  0.11812564  0.63483796  0.75401640     0.12200
H1590       H  0.15686599  0.66819877  0.75088525     0.12200
H1591       H  0.17159042  0.65299308  0.77031662     0.12200
H1592       H  0.13294688  0.61965463  0.77373063     0.12200
C1593       C  0.32329475  0.99495522  0.67867978    -0.13900
C1594       C  0.33184143  0.98656020  0.69027658     0.08200
C1595       C  0.34074433  0.99520154  0.70140854    -0.13900
C1596       C  0.34080207  0.01175626  0.70119043    -0.13900
C1597       C  0.33196353  0.02016868  0.68982912     0.08200
C1598       C  0.32335332  0.01153148  0.67846043    -0.13900
H1599       H  0.31643281  0.98878850  0.66978067     0.12200
H1600       H  0.34750631  0.98926670  0.71053538     0.12200
H1601       H  0.34761175  0.01787832  0.71015395     0.12200
H1602       H  0.31653331  0.01750906  0.66939956     0.12200
C1603       C  0.26748186  0.87989878  0.64268835    -0.13900
C1604       C  0.27380526  0.87375119  0.65684539     0.08200
C1605       C  0.26823106  0.85904727  0.66233617    -0.13900
C1606       C  0.25652487  0.85079391  0.65400705    -0.13900
C1607       C  0.25013687  0.85696331  0.63990265     0.08200
C1608       C  0.25583135  0.87156896  0.63427986    -0.13900
H1609       H  0.27156124  0.89112156  0.63802363     0.12200
H1610       H  0.27272155  0.85394357  0.67321025     0.12200
H1611       H  0.25257647  0.83950583  0.65862581     0.12200
H1612       H  0.25114099  0.87670337  0.62349738     0.12200
C1613       C  0.37592842  0.88217803  0.75974957    -0.13900
C1614       C  0.36233976  0.87566992  0.75259947     0.08200
C1615       C  0.35710198  0.86066419  0.75759294    -0.13900
C1616       C  0.36535350  0.85227486  0.76924392    -0.13900
C1617       C  0.37912329  0.85861709  0.77612759     0.08200
C1618       C  0.38427400  0.87370369  0.77133030    -0.13900
H1619       H  0.38032671  0.89369084  0.75622495     0.12200
H1620       H  0.34660613  0.85531760  0.75252982     0.12200
H1621       H  0.36109300  0.84065366  0.77259685     0.12200
H1622       H  0.39474651  0.87898682  0.77653615     0.12200
C1623       C  0.33959943  0.69207529  0.00323317    -0.13900
C1624       C  0.32723489  0.68478580  0.99473302     0.08200
C1625       C  0.31499634  0.67739767  0.00326984    -0.13900
C1626       C  0.31505684  0.67735298  0.01983279    -0.13900
C1627       C  0.32734844  0.68470738  0.02834135     0.08200
C1628       C  0.33965055  0.69204307  0.01983084    -0.13900
H1629       H  0.34931870  0.69775338  0.99711019     0.12200
H1630       H  0.30517836  0.67180545  0.99721301     0.12200
H1631       H  0.30528204  0.67173963  0.02592197     0.12200
H1632       H  0.34940422  0.69769114  0.02595425     0.12200
C1633       C  0.26496789  0.65578222  0.86711995    -0.13900
C1634       C  0.27091037  0.64947894  0.88135556     0.08200
C1635       C  0.26499816  0.63486015  0.88671549    -0.13900
C1636       C  0.25354553  0.62665109  0.87791370    -0.13900
C1637       C  0.24760457  0.63299186  0.86367769     0.08200
C1638       C  0.25341315  0.64768563  0.85843678    -0.13900
H1639       H  0.26912385  0.66708280  0.86271077     0.12200
H1640       H  0.26937423  0.62964432  0.89759401     0.12200
H1641       H  0.24925238  0.61541477  0.88235827     0.12200
H1642       H  0.24920217  0.65288944  0.84749318     0.12200
C1643       C  0.35827168  0.74634665  0.86759798    -0.13900
C1644       C  0.36366913  0.74084808  0.88237192     0.08200
C1645       C  0.37758778  0.74744397  0.88876980    -0.13900
C1646       C  0.38599243  0.75911916  0.88048617    -0.13900
C1647       C  0.38056781  0.76458037  0.86570897     0.08200
C1648       C  0.36657080  0.75810183  0.85941157    -0.13900
H1649       H  0.34753627  0.74168912  0.86235101     0.12200
H1650       H  0.38212673  0.74347016  0.90009167     0.12200
H1651       H  0.39666108  0.76395196  0.88572896     0.12200
H1652       H  0.36209298  0.76193362  0.84801610     0.12200
C1653       C  0.51847101  0.80898958  0.83660924    -0.13900
C1654       C  0.52670389  0.81784751  0.82514078     0.08200
C1655       C  0.51792541  0.82777227  0.81500983    -0.13900
C1656       C  0.50142017  0.82870824  0.81620670    -0.13900
C1657       C  0.49316248  0.81973008  0.82755720     0.08200
C1658       C  0.50194735  0.80992538  0.83780589    -0.13900
H1659       H  0.52471586  0.80124117  0.84468671     0.12200
H1660       H  0.52371463  0.83483491  0.80603414     0.12200
H1661       H  0.49519436  0.83640453  0.80806814     0.12200
H1662       H  0.49612346  0.80287796  0.84677622     0.12200
C1663       C  0.81680879  0.83067062  0.51239204    -0.13900
C1664       C  0.82794085  0.82150890  0.52074773     0.08200
C1665       C  0.83929391  0.81294104  0.51210470    -0.13900
C1666       C  0.83929489  0.81324662  0.49553578    -0.13900
C1667       C  0.82791684  0.82210278  0.48715577     0.08200
C1668       C  0.81678717  0.83095418  0.49582212    -0.13900
H1669       H  0.80783830  0.83738555  0.51859296     0.12200
H1670       H  0.84821461  0.80594404  0.51809779     0.12200
H1671       H  0.84821285  0.80644334  0.48936433     0.12200
H1672       H  0.80782115  0.83792104  0.48987849     0.12200
C1673       C  0.99919954  0.67893942  0.70207737    -0.13900
C1674       C  0.99092715  0.68652522  0.68976208     0.08200
C1675       C  0.99966431  0.69442011  0.67797218    -0.13900
C1676       C  0.01625469  0.69481264  0.67859617    -0.13900
C1677       C  0.02448755  0.68733460  0.69103454     0.08200
C1678       C  0.01572391  0.67932796  0.70269767    -0.13900
H1679       H  0.99295811  0.67287684  0.71147633     0.12200
H1680       H  0.99373115  0.70026123  0.66821338     0.12200
H1681       H  0.02258515  0.70096066  0.66930252     0.12200
H1682       H  0.02155278  0.67355920  0.71255117     0.12200
C1683       C  0.87499418  0.75570619  0.62771991    -0.13900
C1684       C  0.85964601  0.76011311  0.63237236     0.08200
C1685       C  0.85288294  0.75280177  0.64569977    -0.13900
C1686       C  0.86124760  0.74126581  0.65416228    -0.13900
C1687       C  0.87667155  0.73692889  0.64962691     0.08200
C1688       C  0.88346289  0.74431873  0.63632201    -0.13900
H1689       H  0.88055327  0.76122338  0.61756276     0.12200
H1690       H  0.84102772  0.75586583  0.64950517     0.12200
H1691       H  0.85566677  0.73592795  0.66439051     0.12200
H1692       H  0.89527412  0.74122236  0.63243295     0.12200
C1693       C  0.87731585  0.62148214  0.75916145    -0.13900
C1694       C  0.86258289  0.62679749  0.76480400     0.08200
C1695       C  0.85592917  0.64054842  0.75818508    -0.13900
C1696       C  0.86388766  0.64891672  0.74635862    -0.13900
C1697       C  0.87875156  0.64380822  0.74091676     0.08200
C1698       C  0.88537025  0.62996353  0.74740207    -0.13900
H1699       H  0.88278975  0.61095468  0.76403241     0.12200
H1700       H  0.84452444  0.64488865  0.76209440     0.12200
H1701       H  0.85847821  0.65957593  0.74171549     0.12200
H1702       H  0.89674431  0.62564301  0.74336585     0.12200
C1703       C  0.75735647  0.88018849  0.63917198    -0.13900
C1704       C  0.74906442  0.87276847  0.65159754     0.08200
C1705       C  0.75250492  0.85683621  0.65506442    -0.13900
C1706       C  0.76392612  0.84856656  0.64643585    -0.13900
C1707       C  0.77215985  0.85593145  0.63400535     0.08200
C1708       C  0.76871608  0.87182133  0.63040178    -0.13900
H1709       H  0.75501542  0.89241456  0.63610956     0.12200
H1710       H  0.74651052  0.85068176  0.66456261     0.12200
H1711       H  0.76615633  0.83629405  0.64942204     0.12200
H1712       H  0.77493658  0.87784439  0.62093994     0.12200
C1713       C  0.65985890  0.85316237  0.74502966    -0.13900
C1714       C  0.65490019  0.86853274  0.74093152     0.08200
C1715       C  0.64102489  0.87457085  0.74789425    -0.13900
C1716       C  0.63235447  0.86544907  0.75871290    -0.13900
C1717       C  0.63748444  0.85017898  0.76293946     0.08200
C1718       C  0.65129721  0.84413483  0.75593382    -0.13900
H1719       H  0.67051060  0.84811292  0.74002273     0.12200
H1720       H  0.63679290  0.88631118  0.74495246     0.12200
H1721       H  0.62180383  0.87047765  0.76397659     0.12200
H1722       H  0.65549233  0.83235962  0.75880846     0.12200
C1723       C  0.69110583  0.70143051  0.99665283    -0.13900
C1724       C  0.70039170  0.69024627  0.98853212     0.08200
C1725       C  0.70944828  0.67946282  0.99744763    -0.13900
C1726       C  0.70929686  0.67992968  0.01401871    -0.13900
C1727       C  0.70008501  0.69119673  0.02213849     0.08200
C1728       C  0.69095621  0.70190032  0.01320602    -0.13900
H1729       H  0.68399743  0.70998832  0.99029418     0.12200
H1730       H  0.71667111  0.67059185  0.99169331     0.12200
H1731       H  0.71646659  0.67142798  0.02038298     0.12200
H1732       H  0.68368222  0.71074857  0.01891951     0.12200
C1733       C  0.75519105  0.65143222  0.86016664    -0.13900
C1734       C  0.75030163  0.64655853  0.87529780     0.08200
C1735       C  0.75660382  0.63255049  0.88172291    -0.13900
C1736       C  0.76757770  0.62357674  0.87314158    -0.13900
C1737       C  0.77263985  0.62860391  0.85810027     0.08200
C1738       C  0.76630327  0.64260775  0.85170509    -0.13900
H1739       H  0.75063494  0.66222579  0.85493859     0.12200
H1740       H  0.75295183  0.62844970  0.89331441     0.12200
H1741       H  0.77229860  0.61287389  0.87840904     0.12200
H1742       H  0.76983009  0.64673012  0.84008718     0.12200
C1743       C  0.64486618  0.74543011  0.88109564    -0.13900
C1744       C  0.65741840  0.73710640  0.87398803     0.08200
C1745       C  0.66103284  0.74021857  0.85802043    -0.13900
C1746       C  0.65245646  0.75149822  0.84944426    -0.13900
C1747       C  0.63994352  0.75981288  0.85656185     0.08200
C1748       C  0.63616141  0.75659298  0.87244224    -0.13900
H1749       H  0.64167663  0.74329403  0.89332425     0.12200
H1750       H  0.67064571  0.73414016  0.85213519     0.12200
H1751       H  0.65555596  0.75360223  0.83717762     0.12200
H1752       H  0.62663184  0.76288486  0.87826863     0.12200
C1753       C  0.82333262  0.49125133  0.83834537    -0.13900
C1754       C  0.83127796  0.48254098  0.82660401     0.08200
C1755       C  0.83964837  0.49082863  0.81481741    -0.13900
C1756       C  0.83979282  0.50740040  0.81461544    -0.13900
C1757       C  0.83156200  0.51609253  0.82618702     0.08200
C1758       C  0.82347048  0.50779899  0.83813784    -0.13900
H1759       H  0.81695996  0.48533971  0.84775578     0.12200
H1760       H  0.84586254  0.48457992  0.80552632     0.12200
H1761       H  0.84609726  0.51333684  0.80517195     0.12200
H1762       H  0.81720101  0.51404715  0.84739429     0.12200
C1763       C  0.00450764  0.32757654  0.70315312    -0.13900
C1764       C  0.99572199  0.31987647  0.69126700     0.08200
C1765       C  0.00392793  0.31291851  0.67854850    -0.13900
C1766       C  0.02048771  0.31338462  0.67790849    -0.13900
C1767       C  0.02926143  0.32085616  0.68994628     0.08200
C1768       C  0.02104636  0.32806380  0.70249720    -0.13900
H1769       H  0.99869377  0.33300584  0.71318522     0.12200
H1770       H  0.99761529  0.30705691  0.66905284     0.12200
H1771       H  0.02637501  0.30788832  0.66794543     0.12200
H1772       H  0.02735553  0.33383021  0.71205383     0.12200
C1773       C  0.86744166  0.34564907  0.75499391    -0.13900
C1774       C  0.88246100  0.35073893  0.74992397     0.08200
C1775       C  0.88844439  0.36514172  0.75580277    -0.13900
C1776       C  0.87969787  0.37411484  0.76664146    -0.13900
C1777       C  0.86481094  0.36884456  0.77190695     0.08200
C1778       C  0.85875042  0.35456771  0.76586357    -0.13900
H1779       H  0.86241340  0.33463947  0.75078275     0.12200
H1780       H  0.89988202  0.36954055  0.75205812     0.12200
H1781       H  0.88474093  0.38504328  0.77106707     0.12200
H1782       H  0.84723696  0.35024188  0.76946565     0.12200
C1783       C  0.68204331  0.30821230  0.00119476    -0.13900
C1784       C  0.68984136  0.32007057  0.99246508     0.08200
C1785       C  0.69709379  0.33259414  0.00073381    -0.13900
C1786       C  0.69700186  0.33296669  0.01729675    -0.13900
C1787       C  0.68960247  0.32086194  0.02600708     0.08200
C1788       C  0.68192399  0.30860697  0.01774897    -0.13900
H1789       H  0.67633795  0.29835246  0.99532808     0.12200
H1790       H  0.70299298  0.34208827  0.99446979     0.12200
H1791       H  0.70279931  0.34273858  0.02324105     0.12200
H1792       H  0.67615495  0.29903891  0.02402776     0.12200
C1793       C  0.75526364  0.34758552  0.86564720    -0.13900
C1794       C  0.74993141  0.35295672  0.88047008     0.08200
C1795       C  0.75597923  0.36733022  0.88638919    -0.13900
C1796       C  0.76698672  0.37614898  0.87759510    -0.13900
C1797       C  0.77229550  0.37069930  0.86277503     0.08200
C1798       C  0.76628700  0.35631037  0.85694649    -0.13900
H1799       H  0.75104418  0.33653498  0.86071807     0.12200
H1800       H  0.75211199  0.37187407  0.89773043     0.12200
H1801       H  0.77144641  0.38713253  0.88249053     0.12200
H1802       H  0.76996164  0.35177978  0.84553882     0.12200
C1803       C  0.83169365  0.20422907  0.51922007    -0.13900
C1804       C  0.82225825  0.19349780  0.52775074     0.08200
C1805       C  0.81308646  0.18244162  0.51934723    -0.13900
C1806       C  0.81326010  0.18215612  0.50281061    -0.13900
C1807       C  0.82255750  0.19297468  0.49421045     0.08200
C1808       C  0.83182157  0.20399494  0.50264435    -0.13900
H1809       H  0.83883209  0.21297116  0.52531682     0.12200
H1810       H  0.80585241  0.17384386  0.52551443     0.12200
H1811       H  0.80605082  0.17340018  0.49685590     0.12200
H1812       H  0.83913024  0.21254687  0.49652188     0.12200
C1813       C  0.88304292  0.24043299  0.63659455    -0.13900
C1814       C  0.86973836  0.23282476  0.64309833     0.08200
C1815       C  0.86494641  0.23684057  0.65851911    -0.13900
C1816       C  0.87304005  0.24845436  0.66710253    -0.13900
C1817       C  0.88621272  0.25622312  0.66053535     0.08200
C1818       C  0.89124732  0.25195161  0.64525475    -0.13900
H1819       H  0.88712124  0.23751457  0.62479638     0.12200
H1820       H  0.85470348  0.23129981  0.66387157     0.12200
H1821       H  0.86895082  0.25131009  0.67890846     0.12200
H1822       H  0.90132288  0.25772857  0.63982733     0.12200
C1823       C  0.51946406  0.17053365  0.82195478    -0.13900
C1824       C  0.52827026  0.18146814  0.83093516     0.08200
C1825       C  0.52003156  0.19274148  0.84000266    -0.13900
C1826       C  0.50343818  0.19337164  0.83968313    -0.13900
C1827       C  0.49464173  0.18271221  0.83032149     0.08200
C1828       C  0.50290900  0.17114119  0.82165306    -0.13900
H1829       H  0.52532443  0.16148749  0.81503413     0.12200
H1830       H  0.52636908  0.20137311  0.84705647     0.12200
H1831       H  0.49758953  0.20243168  0.84658434     0.12200
H1832       H  0.49666837  0.16255568  0.81447533     0.12200
C1833       C  0.63943530  0.23825850  0.88009239    -0.13900
C1834       C  0.64405591  0.23349904  0.86483389     0.08200
C1835       C  0.65762459  0.24041173  0.85808758    -0.13900
C1836       C  0.66625245  0.25193373  0.86631930    -0.13900
C1837       C  0.66160254  0.25676886  0.88156277     0.08200
C1838       C  0.64813524  0.24969970  0.88838265    -0.13900
H1839       H  0.62912522  0.23309287  0.88569484     0.12200
H1840       H  0.66147900  0.23713555  0.84631285     0.12200
H1841       H  0.67659583  0.25699019  0.86069652     0.12200
H1842       H  0.64412252  0.25312578  0.90005478     0.12200
C1843       C  0.70899760  0.00969716  0.68920069    -0.13900
C1844       C  0.69627518  0.01820982  0.69576301     0.08200
C1845       C  0.68339712  0.00964561  0.70200088    -0.13900
C1846       C  0.68324546  0.99304807  0.70161899    -0.13900
C1847       C  0.69594151  0.98458526  0.69494762     0.08200
C1848       C  0.70882473  0.99314505  0.68878869    -0.13900
H1849       H  0.71920659  0.01573957  0.68438299     0.12200
H1850       H  0.67333645  0.01569731  0.70711040     0.12200
H1851       H  0.67306729  0.98689319  0.70639267     0.12200
H1852       H  0.71892161  0.98710262  0.68373261     0.12200
C1853       C  0.75498123  0.15215606  0.63639971    -0.13900
C1854       C  0.77114848  0.14887850  0.63846115     0.08200
C1855       C  0.77576864  0.13660572  0.64869136    -0.13900
C1856       C  0.76435135  0.12757967  0.65660514    -0.13900
C1857       C  0.74819087  0.13108553  0.65483107     0.08200
C1858       C  0.74359038  0.14350514  0.64475083    -0.13900
H1859       H  0.75120223  0.16164539  0.62861836     0.12200
H1860       H  0.78819921  0.13389485  0.65039985     0.12200
H1861       H  0.76815009  0.11812668  0.66441801     0.12200
H1862       H  0.73117773  0.14639072  0.64321318     0.12200
C1863       C  0.65015615  0.15646180  0.75800833    -0.13900
C1864       C  0.63624718  0.15043173  0.76485623     0.08200
C1865       C  0.63028132  0.13584785  0.75946717    -0.13900
C1866       C  0.63831862  0.12726264  0.74778038    -0.13900
C1867       C  0.65232886  0.13322088  0.74104761     0.08200
C1868       C  0.65804441  0.14801239  0.74616055    -0.13900
H1869       H  0.65496292  0.16773603  0.76180245     0.12200
H1870       H  0.61962261  0.13086355  0.76456461     0.12200
H1871       H  0.63354174  0.11597072  0.74400839     0.12200
H1872       H  0.66883889  0.15292766  0.74129942     0.12200
loop_ 
_geom_bond_atom_site_label_1 
_geom_bond_atom_site_label_2 
_geom_bond_distance 
_geom_bond_site_symmetry_2 
_ccdc_geom_bond_type 
N1            N2   1.322       .  A
N1            C5   1.346       .  A
N1           Cu9   2.078       .  S
N2            C3   1.344       .  A
N2           Cu8   2.067       .  S
C3            C4   1.382       .  A
C3            H6   1.082       .  S
C4            C5   1.385       .  A
C4         C1857   1.474       .  S
C5            H7   1.082       .  S
Cu8          N11   2.068       .  S
Cu9          N19   2.079       .  S
Cu10         N12   2.082       .  S
Cu10         N18   2.083       .  S
N11          N12   1.321       .  A
N11          C15   1.344       .  A
N12          C13   1.347       .  A
C13          C14   1.389       .  A
C13          H16   1.082       .  S
C14          C15   1.385       .  A
C14        C1867   1.484       .  S
C15          H17   1.082       .  S
N18          N19   1.322       .  A
N18          C22   1.346       .  A
N19          C20   1.344       .  A
C20          C21   1.389       .  A
C20          H23   1.081       .  S
C21          C22   1.390       .  A
C21        C1844   1.490       .  S
C22          H24   1.081       .  S
N25          N26   1.322       .  A
N25          C29   1.347       .  A
N25         Cu33   2.087       .  S
N26          C27   1.344       .  A
N26         Cu32   2.073       .  S
C27          C28   1.386       .  A
C27          H30   1.081       .  S
C28          C29   1.389       .  A
C28        C1834   1.486       .  S
C29          H31   1.082       .  S
Cu32         N35   2.073       .  S
Cu33         N43   2.088       .  S
Cu34         N36   2.075       .  S
Cu34         N42   2.076       .  S
N35          N36   1.321       .  A
N35          C39   1.344       .  A
N36          C37   1.346       .  A
C37          C38   1.387       .  A
C37          H40   1.082       .  S
C38          C39   1.386       .  A
C38        C1864   1.482       .  S
C39          H41   1.082       .  S
N42          N43   1.322       .  A
N42          C46   1.343       .  A
N43          C44   1.348       .  A
C44          C45   1.391       .  A
C44          H47   1.081       .  S
C45          C46   1.387       .  A
C45        C1824   1.489       .  S
C46          H48   1.081       .  S
N49          N50   1.321       .  A
N49          C53   1.345       .  A
N49         Cu57   2.072       .  S
N50          C51   1.344       .  A
N50         Cu56   2.073       .  S
C51          C52   1.387       .  A
C51          H54   1.081       .  S
C52          C53   1.386       .  A
C52        C1814   1.482       .  S
C53          H55   1.082       .  S
Cu56         N59   2.072       .  S
Cu57         N67   2.072       .  S
Cu58         N60   2.071       .  S
Cu58         N66   2.072       .  S
N59          N60   1.322       .  A
N59          C63   1.345       .  A
N60          C61   1.345       .  A
C61          C62   1.383       .  A
C61          H64   1.082       .  S
C62          C63   1.383       .  A
C62        C1854   1.472       .  S
C63          H65   1.082       .  S
N66          N67   1.322       .  A
N66          C70   1.343       .  A
N67          C68   1.345       .  A
C68          C69   1.387       .  A
C68          H71   1.082       .  S
C69          C70   1.386       .  A
C69        C1804   1.482       .  S
C70          H72   1.081       .  S
N73          N74   1.320       .  A
N73          C77   1.345       .  A
N73         Cu81   2.074       .  S
N74          C75   1.345       .  A
N74         Cu80   2.077       .  S
C75          C76   1.389       .  A
C75          H78   1.081       .  S
C76          C77   1.388       .  A
C76        C1837   1.488       .  S
C77          H79   1.081       .  S
Cu80         N83   2.077       .  S
Cu81         N91   2.074       .  S
Cu82         N84   2.079       .  S
Cu82         N90   2.079       .  S
N83          N84   1.321       .  A
N83          C87   1.343       .  A
N84          C85   1.348       .  A
C85          C86   1.389       .  A
C85          H88   1.081       .  S
C86          C87   1.388       .  A
C86        C1794   1.488       .  S
C87          H89   1.081       .  S
N90          N91   1.322       .  A
N90          C94   1.345       .  A
N91          C92   1.344       .  A
C92          C93   1.388       .  A
C92          H95   1.081       .  S
C93          C94   1.388       .  A
C93        C1784   1.486       .  S
C94          H96   1.081       .  S
N97          N98   1.321       .  A
N97         C101   1.345       .  A
N97        Cu105   2.074       .  S
N98          C99   1.343       .  A
N98        Cu104   2.069       .  S
C99         C100   1.386       .  A
C99         H102   1.081       .  S
C100        C101   1.387       .  A
C100       C1817   1.482       .  S
C101        H103   1.082       .  S
Cu104       N107   2.069       .  S
Cu105       N115   2.074       .  S
Cu106       N108   2.076       .  S
Cu106       N114   2.076       .  S
N107        N108   1.321       .  A
N107        C111   1.343       .  A
N108        C109   1.345       .  A
C109        C110   1.388       .  A
C109        H112   1.081       .  S
C110        C111   1.387       .  A
C110       C1774   1.485       .  S
C111        H113   1.081       .  S
N114        N115   1.321       .  A
N114        C118   1.345       .  A
N115        C116   1.344       .  A
C116        C117   1.388       .  A
C116        H119   1.081       .  S
C117        C118   1.389       .  A
C117       C1764   1.487       .  S
C118        H120   1.081       .  S
N121        N122   1.321       .  A
N121        C125   1.348       .  A
N121       Cu129   2.082       .  S
N122        C123   1.343       .  A
N122       Cu128   2.071       .  S
C123        C124   1.386       .  A
C123        H126   1.081       .  S
C124        C125   1.390       .  A
C124       C1797   1.486       .  S
C125        H127   1.082       .  S
Cu128       N131   2.070       .  S
Cu129       N139   2.082       .  S
Cu130       N132   2.070       .  S
Cu130       N138   2.070       .  S
N131        N132   1.320       .  A
N131        C135   1.343       .  A
N132        C133   1.345       .  A
C133        C134   1.387       .  A
C133        H136   1.081       .  S
C134        C135   1.387       .  A
C134       C1777   1.483       .  S
C135        H137   1.081       .  S
N138        N139   1.322       .  A
N138        C142   1.344       .  A
N139        C140   1.344       .  A
C140        C141   1.388       .  A
C140        H143   1.081       .  S
C141        C142   1.387       .  A
C141       C1754   1.486       .  S
C142        H144   1.081       .  S
N145        N146   1.322       .  A
N145        C149   1.346       .  A
N145       Cu153   2.076       .  S
N146        C147   1.343       .  A
N146       Cu152   2.067       .  S
C147        C148   1.384       .  A
C147        H150   1.082       .  S
C148        C149   1.386       .  A
C148       C1734   1.478       .  S
C149        H151   1.082       .  S
Cu152       N155   2.067       .  S
Cu153       N163   2.076       .  S
Cu154       N156   2.076       .  S
Cu154       N162   2.076       .  S
N155        N156   1.320       .  A
N155        C159   1.343       .  A
N156        C157   1.346       .  A
C157        C158   1.389       .  A
C157        H160   1.081       .  S
C158        C159   1.387       .  A
C158       C1744   1.485       .  S
C159        H161   1.081       .  S
N162        N163   1.322       .  A
N162        C166   1.344       .  A
N163        C164   1.345       .  A
C164        C165   1.389       .  A
C164        H167   1.081       .  S
C165        C166   1.388       .  A
C165       C1724   1.488       .  S
C166        H168   1.081       .  S
N169        N170   1.320       .  A
N169        C173   1.348       .  A
N169       Cu177   2.081       .  S
N170        C171   1.343       .  A
N170       Cu176   2.071       .  S
C171        C172   1.388       .  A
C171        H174   1.081       .  S
C172        C173   1.390       .  A
C172       C1704   1.489       .  S
C173        H175   1.081       .  S
Cu176       N179   2.071       .  S
Cu177       N187   2.081       .  S
Cu178       N180   2.081       .  S
Cu178       N186   2.082       .  S
N179        N180   1.321       .  A
N179        C183   1.343       .  A
N180        C181   1.347       .  A
C181        C182   1.389       .  A
C181        H184   1.081       .  S
C182        C183   1.387       .  A
C182       C1714   1.486       .  S
C183        H185   1.081       .  S
N186        N187   1.323       .  A
N186        C190   1.347       .  A
N187        C188   1.344       .  A
C188        C189   1.388       .  A
C188        H191   1.081       .  S
C189        C190   1.389       .  A
C189       C1847   1.488       .  S
C190        H192   1.081       .  S
N193        N194   1.321       .  A
N193        C197   1.345       .  A
N193       Cu201   2.079       .  S
N194        C195   1.345       .  A
N194       Cu200   2.073       .  S
C195        C196   1.388       .  A
C195        H198   1.081       .  S
C196        C197   1.388       .  A
C196       C1687   1.485       .  S
C197        H199   1.081       .  S
Cu200       N203   2.073       .  S
Cu201       N211   2.079       .  S
Cu202       N204   2.074       .  S
Cu202       N210   2.074       .  S
N203        N204   1.321       .  A
N203        C207   1.343       .  A
N204        C205   1.346       .  A
C205        C206   1.387       .  A
C205        H208   1.082       .  S
C206        C207   1.386       .  A
C206       C1697   1.482       .  S
C207        H209   1.081       .  S
N210        N211   1.321       .  A
N210        C214   1.343       .  A
N211        C212   1.347       .  A
C212        C213   1.389       .  A
C212        H215   1.081       .  S
C213        C214   1.387       .  A
C213       C1674   1.487       .  S
C214        H216   1.081       .  S
N217        N218   1.321       .  A
N217        C221   1.346       .  A
N217       Cu225   2.073       .  S
N218        C219   1.342       .  A
N218       Cu224   2.065       .  S
C219        C220   1.386       .  A
C219        H222   1.081       .  S
C220        C221   1.387       .  A
C220       C1694   1.482       .  S
C221        H223   1.082       .  S
Cu224       N227   2.065       .  S
Cu225       N235   2.074       .  S
Cu226       N228   2.075       .  S
Cu226       N234   2.076       .  S
N227        N228   1.321       .  A
N227        C231   1.342       .  A
N228        C229   1.346       .  A
C229        C230   1.387       .  A
C229        H232   1.082       .  S
C230        C231   1.384       .  A
C230       C1737   1.480       .  S
C231        H233   1.082       .  S
N234        N235   1.322       .  A
N234        C238   1.344       .  A
N235        C236   1.345       .  A
C236        C237   1.387       .  A
C236        H239   1.081       .  S
C237        C238   1.387       .  A
C237       C1757   1.485       .  S
C238        H240   1.081       .  S
N241        N242   1.321       .  A
N241        C245   1.347       .  A
N241       Cu249   2.077       .  S
N242        C243   1.344       .  A
N242       Cu248   2.072       .  S
C243        C244   1.385       .  A
C243        H246   1.082       .  S
C244        C245   1.387       .  A
C244       C1684   1.481       .  S
C245        H247   1.082       .  S
Cu248       N251   2.072       .  S
Cu249       N259   2.078       .  S
Cu250       N252   2.082       .  S
Cu250       N258   2.082       .  S
N251        N252   1.321       .  A
N251        C255   1.343       .  A
N252        C253   1.348       .  A
C253        C254   1.388       .  A
C253        H256   1.082       .  S
C254        C255   1.385       .  A
C254       C1707   1.484       .  S
C255        H257   1.082       .  S
N258        N259   1.323       .  A
N258        C262   1.345       .  A
N259        C260   1.345       .  A
C260        C261   1.387       .  A
C260        H263   1.081       .  S
C261        C262   1.388       .  A
C261       C1664   1.486       .  S
C262        H264   1.081       .  S
N265        N266   1.321       .  A
N265        C269   1.347       .  A
N265       Cu273   2.077       .  S
N266        C267   1.343       .  A
N266       Cu272   2.072       .  S
C267        C268   1.386       .  A
C267        H270   1.082       .  S
C268        C269   1.387       .  A
C268       C1717   1.482       .  S
C269        H271   1.082       .  S
Cu272       N275   2.072       .  S
Cu273       N283   2.078       .  S
Cu274       N276   2.080       .  S
Cu274       N282   2.081       .  S
N275        N276   1.322       .  A
N275        C279   1.344       .  A
N276        C277   1.346       .  A
C277        C278   1.387       .  A
C277        H280   1.082       .  S
C278        C279   1.385       .  A
C278       C1747   1.481       .  S
C279        H281   1.082       .  S
N282        N283   1.321       .  A
N282        C286   1.346       .  A
N283        C284   1.344       .  A
C284        C285   1.389       .  A
C284        H287   1.081       .  S
C285        C286   1.390       .  A
C285       C1654   1.492       .  S
C286        H288   1.081       .  S
N289        N290   1.321       .  A
N289        C293   1.346       .  A
N289       Cu297   2.076       .  S
N290        C291   1.344       .  A
N290       Cu296   2.075       .  S
C291        C292   1.388       .  A
C291        H294   1.081       .  S
C292        C293   1.388       .  A
C292       C1644   1.486       .  S
C293        H295   1.081       .  S
Cu296       N299   2.075       .  S
Cu297       N307   2.077       .  S
Cu298       N300   2.084       .  S
Cu298       N306   2.084       .  S
N299        N300   1.322       .  A
N299        C303   1.344       .  A
N300        C301   1.348       .  A
C301        C302   1.389       .  A
C301        H304   1.082       .  S
C302        C303   1.386       .  A
C302       C1634   1.485       .  S
C303        H305   1.081       .  S
N306        N307   1.322       .  A
N306        C310   1.345       .  A
N307        C308   1.346       .  A
C308        C309   1.388       .  A
C308        H311   1.081       .  S
C309        C310   1.389       .  A
C309       C1624   1.488       .  S
C310        H312   1.081       .  S
N313        N314   1.321       .  A
N313        C317   1.346       .  A
N313       Cu321   2.073       .  S
N314        C315   1.343       .  A
N314       Cu320   2.074       .  S
C315        C316   1.387       .  A
C315        H318   1.081       .  S
C316        C317   1.388       .  A
C316       C1614   1.486       .  S
C317        H319   1.081       .  S
Cu320       N323   2.074       .  S
Cu321       N331   2.074       .  S
Cu322       N324   2.079       .  S
Cu322       N330   2.079       .  S
N323        N324   1.321       .  A
N323        C327   1.344       .  A
N324        C325   1.346       .  A
C325        C326   1.389       .  A
C325        H328   1.081       .  S
C326        C327   1.388       .  A
C326       C1604   1.487       .  S
C327        H329   1.081       .  S
N330        N331   1.322       .  A
N330        C334   1.345       .  A
N331        C332   1.344       .  A
C332        C333   1.388       .  A
C332        H335   1.081       .  S
C333        C334   1.389       .  A
C333       C1594   1.488       .  S
C334        H336   1.081       .  S
N337        N338   1.321       .  A
N337        C341   1.347       .  A
N337       Cu345   2.084       .  S
N338        C339   1.343       .  A
N338       Cu344   2.068       .  S
C339        C340   1.385       .  A
C339        H342   1.081       .  S
C340        C341   1.389       .  A
C340       C1647   1.485       .  S
C341        H343   1.082       .  S
Cu344       N347   2.068       .  S
Cu345       N355   2.084       .  S
Cu346       N348   2.081       .  S
Cu346       N354   2.082       .  S
N347        N348   1.321       .  A
N347        C351   1.343       .  A
N348        C349   1.346       .  A
C349        C350   1.388       .  A
C349        H352   1.082       .  S
C350        C351   1.385       .  A
C350       C1617   1.482       .  S
C351        H353   1.082       .  S
N354        N355   1.322       .  A
N354        C358   1.345       .  A
N355        C356   1.346       .  A
C356        C357   1.390       .  A
C356        H359   1.081       .  S
C357        C358   1.390       .  A
C357       C1657   1.492       .  S
C358        H360   1.081       .  S
N361        N362   1.321       .  A
N361        C365   1.347       .  A
N361       Cu369   2.079       .  S
N362        C363   1.342       .  A
N362       Cu368   2.065       .  S
C363        C364   1.386       .  A
C363        H366   1.081       .  S
C364        C365   1.390       .  A
C364       C1584   1.485       .  S
C365        H367   1.081       .  S
Cu368       N371   2.065       .  S
Cu369       N379   2.080       .  S
Cu370       N372   2.076       .  S
Cu370       N378   2.076       .  S
N371        N372   1.321       .  A
N371        C375   1.343       .  A
N372        C373   1.346       .  A
C373        C374   1.387       .  A
C373        H376   1.082       .  S
C374        C375   1.385       .  A
C374       C1574   1.480       .  S
C375        H377   1.082       .  S
N378        N379   1.322       .  A
N378        C382   1.346       .  A
N379        C380   1.344       .  A
C380        C381   1.389       .  A
C380        H383   1.081       .  S
C381        C382   1.388       .  A
C381       C1677   1.487       .  S
C382        H384   1.081       .  S
N385        N386   1.321       .  A
N385        C389   1.346       .  A
N385       Cu393   2.075       .  S
N386        C387   1.344       .  A
N386       Cu392   2.073       .  S
C387        C388   1.388       .  A
C387        H390   1.081       .  S
C388        C389   1.388       .  A
C388       C1637   1.485       .  S
C389        H391   1.082       .  S
Cu392       N395   2.073       .  S
Cu393       N403   2.075       .  S
Cu394       N396   2.078       .  S
Cu394       N402   2.078       .  S
N395        N396   1.322       .  A
N395        C399   1.343       .  A
N396        C397   1.347       .  A
C397        C398   1.387       .  A
C397        H400   1.082       .  S
C398        C399   1.385       .  A
C398       C1587   1.481       .  S
C399        H401   1.082       .  S
N402        N403   1.321       .  A
N402        C406   1.345       .  A
N403        C404   1.344       .  A
C404        C405   1.388       .  A
C404        H407   1.081       .  S
C405        C406   1.389       .  A
C405       C1564   1.489       .  S
C406        H408   1.081       .  S
N409        N410   1.321       .  A
N409        C413   1.347       .  A
N409       Cu417   2.084       .  S
N410        C411   1.343       .  A
N410       Cu416   2.070       .  S
C411        C412   1.386       .  A
C411        H414   1.081       .  S
C412        C413   1.390       .  A
C412       C1607   1.486       .  S
C413        H415   1.081       .  S
Cu416       N419   2.069       .  S
Cu417       N427   2.085       .  S
Cu418       N420   2.074       .  S
Cu418       N426   2.075       .  S
N419        N420   1.320       .  A
N419        C423   1.343       .  A
N420        C421   1.345       .  A
C421        C422   1.388       .  A
C421        H424   1.081       .  S
C422        C423   1.387       .  A
C422       C1577   1.484       .  S
C423        H425   1.081       .  S
N426        N427   1.322       .  A
N426        C430   1.344       .  A
N427        C428   1.346       .  A
C428        C429   1.390       .  A
C428        H431   1.081       .  S
C429        C430   1.388       .  A
C429       C1554   1.490       .  S
C430        H432   1.081       .  S
N433        N434   1.321       .  A
N433        C437   1.346       .  A
N433       Cu441   2.076       .  S
N434        C435   1.342       .  A
N434       Cu440   2.063       .  S
C435        C436   1.385       .  A
C435        H438   1.081       .  S
C436        C437   1.389       .  A
C436       C1534   1.482       .  S
C437        H439   1.081       .  S
Cu440       N443   2.063       .  S
Cu441       N451   2.077       .  S
Cu442       N444   2.080       .  S
Cu442       N450   2.080       .  S
N443        N444   1.320       .  A
N443        C447   1.342       .  A
N444        C445   1.347       .  A
C445        C446   1.391       .  A
C445        H448   1.081       .  S
C446        C447   1.387       .  A
C446       C1544   1.487       .  S
C447        H449   1.081       .  S
N450        N451   1.323       .  A
N450        C454   1.344       .  A
N451        C452   1.345       .  A
C452        C453   1.387       .  A
C452        H455   1.081       .  S
C453        C454   1.387       .  A
C453       C1767   1.486       .  S
C454        H456   1.081       .  S
N457        N458   1.322       .  A
N457        C461   1.345       .  A
N457       Cu465   2.071       .  S
N458        C459   1.345       .  A
N458       Cu464   2.078       .  S
C459        C460   1.387       .  A
C459        H462   1.082       .  S
C460        C461   1.386       .  A
C460       C1547   1.482       .  S
C461        H463   1.082       .  S
Cu464       N467   2.078       .  S
Cu465       N475   2.072       .  S
Cu466       N468   2.075       .  S
Cu466       N474   2.075       .  S
N467        N468   1.322       .  A
N467        C471   1.344       .  A
N468        C469   1.346       .  A
C469        C470   1.387       .  A
C469        H472   1.082       .  S
C470        C471   1.388       .  A
C470       C1524   1.484       .  S
C471        H473   1.081       .  S
N474        N475   1.321       .  A
N474        C478   1.344       .  A
N475        C476   1.344       .  A
C476        C477   1.389       .  A
C476        H479   1.081       .  S
C477        C478   1.389       .  A
C477       C1567   1.489       .  S
C478        H480   1.081       .  S
N481        N482   1.321       .  A
N481        C485   1.346       .  A
N481       Cu489   2.073       .  S
N482        C483   1.344       .  A
N482       Cu488   2.072       .  S
C483        C484   1.387       .  A
C483        H486   1.081       .  S
C484        C485   1.387       .  A
C484       C1514   1.484       .  S
C485        H487   1.081       .  S
Cu488       N491   2.073       .  S
Cu489       N499   2.074       .  S
Cu490       N492   2.081       .  S
Cu490       N498   2.081       .  S
N491        N492   1.321       .  A
N491        C495   1.343       .  A
N492        C493   1.347       .  A
C493        C494   1.390       .  A
C493        H496   1.081       .  S
C494        C495   1.388       .  A
C494       C1504   1.488       .  S
C495        H497   1.081       .  S
N498        N499   1.322       .  A
N498        C502   1.345       .  A
N499        C500   1.344       .  A
C500        C501   1.388       .  A
C500        H503   1.081       .  S
C501        C502   1.389       .  A
C501       C1597   1.488       .  S
C502        H504   1.081       .  S
N505        N506   1.320       .  A
N505        C509   1.347       .  A
N505       Cu513   2.084       .  S
N506        C507   1.342       .  A
N506       Cu512   2.063       .  S
C507        C508   1.386       .  A
C507        H510   1.081       .  S
C508        C509   1.391       .  A
C508       C1517   1.486       .  S
C509        H511   1.081       .  S
Cu512       N515   2.063       .  S
Cu513       N523   2.085       .  S
Cu514       N516   2.083       .  S
Cu514       N522   2.083       .  S
N515        N516   1.321       .  A
N515        C519   1.342       .  A
N516        C517   1.347       .  A
C517        C518   1.389       .  A
C517        H520   1.082       .  S
C518        C519   1.384       .  A
C518       C1494   1.482       .  S
C519        H521   1.082       .  S
N522        N523   1.323       .  A
N522        C526   1.346       .  A
N523        C524   1.345       .  A
C524        C525   1.390       .  A
C524        H527   1.081       .  S
C525        C526   1.389       .  A
C525       C1827   1.492       .  S
C526        H528   1.081       .  S
N529        N530   1.321       .  A
N529        C533   1.347       .  A
N529       Cu537   2.079       .  S
N530        C531   1.342       .  A
N530       Cu536   2.072       .  S
C531        C532   1.387       .  A
C531        H534   1.081       .  S
C532        C533   1.390       .  A
C532       C1527   1.487       .  S
C533        H535   1.081       .  S
Cu536       N539   2.072       .  S
Cu537       N547   2.080       .  S
Cu538       N540   2.078       .  S
Cu538       N546   2.079       .  S
N539        N540   1.321       .  A
N539        C543   1.345       .  A
N540        C541   1.345       .  A
C541        C542   1.388       .  A
C541        H544   1.081       .  S
C542        C543   1.387       .  A
C542       C1497   1.484       .  S
C543        H545   1.082       .  S
N546        N547   1.322       .  A
N546        C550   1.345       .  A
N547        C548   1.345       .  A
C548        C549   1.389       .  A
C548        H551   1.081       .  S
C549        C550   1.388       .  A
C549       C1484   1.488       .  S
C550        H552   1.081       .  S
N553        N554   1.321       .  A
N553        C557   1.347       .  A
N553       Cu561   2.081       .  S
N554        C555   1.343       .  A
N554       Cu560   2.073       .  S
C555        C556   1.386       .  A
C555        H558   1.081       .  S
C556        C557   1.389       .  A
C556       C1507   1.486       .  S
C557        H559   1.082       .  S
Cu560       N563   2.073       .  S
Cu561       N571   2.081       .  S
Cu562       N564   2.068       .  S
Cu562       N570   2.068       .  S
N563        N564   1.321       .  A
N563        C567   1.344       .  A
N564        C565   1.345       .  A
C565        C566   1.386       .  A
C565        H568   1.082       .  S
C566        C567   1.387       .  A
C566       C1537   1.481       .  S
C567        H569   1.081       .  S
N570        N571   1.321       .  A
N570        C574   1.343       .  A
N571        C572   1.345       .  A
C572        C573   1.389       .  A
C572        H575   1.081       .  S
C573        C574   1.387       .  A
C573       C1474   1.487       .  S
C574        H576   1.081       .  S
N577        N578   1.321       .  A
N577        C581   1.345       .  A
N577       Cu585   2.073       .  S
N578        C579   1.343       .  A
N578       Cu584   2.070       .  S
C579        C580   1.386       .  A
C579        H582   1.082       .  S
C580        C581   1.386       .  A
C580       C1454   1.481       .  S
C581        H583   1.082       .  S
Cu584       N587   2.070       .  S
Cu585       N595   2.074       .  S
Cu586       N588   2.076       .  S
Cu586       N594   2.076       .  S
N587        N588   1.321       .  A
N587        C591   1.343       .  A
N588        C589   1.346       .  A
C589        C590   1.387       .  A
C589        H592   1.082       .  S
C590        C591   1.385       .  A
C590       C1464   1.481       .  S
C591        H593   1.082       .  S
N594        N595   1.322       .  A
N594        C598   1.345       .  A
N595        C596   1.344       .  A
C596        C597   1.387       .  A
C596        H599   1.081       .  S
C597        C598   1.387       .  A
C597       C1447   1.484       .  S
C598        H600   1.081       .  S
N601        N602   1.321       .  A
N601        C605   1.346       .  A
N601       Cu609   2.080       .  S
N602        C603   1.343       .  A
N602       Cu608   2.064       .  S
C603        C604   1.385       .  A
C603        H606   1.082       .  S
C604        C605   1.388       .  A
C604       C1467   1.482       .  S
C605        H607   1.082       .  S
Cu608       N611   2.064       .  S
Cu609       N619   2.080       .  S
Cu610       N612   2.075       .  S
Cu610       N618   2.075       .  S
N611        N612   1.321       .  A
N611        C615   1.342       .  A
N612        C613   1.346       .  A
C613        C614   1.388       .  A
C613        H616   1.081       .  S
C614        C615   1.386       .  A
C614       C1437   1.483       .  S
C615        H617   1.081       .  S
N618        N619   1.322       .  A
N618        C622   1.344       .  A
N619        C620   1.345       .  A
C620        C621   1.390       .  A
C620        H623   1.081       .  S
C621        C622   1.389       .  A
C621       C1557   1.490       .  S
C622        H624   1.081       .  S
N625        N626   1.321       .  A
N625        C629   1.346       .  A
N625       Cu633   2.073       .  S
N626        C627   1.343       .  A
N626       Cu632   2.071       .  S
C627        C628   1.387       .  A
C627        H630   1.081       .  S
C628        C629   1.388       .  A
C628       C1457   1.485       .  S
C629        H631   1.081       .  S
Cu632       N635   2.071       .  S
Cu633       N643   2.073       .  S
Cu634       N636   2.079       .  S
Cu634       N642   2.079       .  S
N635        N636   1.321       .  A
N635        C639   1.344       .  A
N636        C637   1.345       .  A
C637        C638   1.388       .  A
C637        H640   1.081       .  S
C638        C639   1.387       .  A
C638       C1424   1.484       .  S
C639        H641   1.082       .  S
N642        N643   1.322       .  A
N642        C646   1.346       .  A
N643        C644   1.344       .  A
C644        C645   1.387       .  A
C644        H647   1.081       .  S
C645        C646   1.388       .  A
C645       C1414   1.485       .  S
C646        H648   1.081       .  S
N649        N650   1.321       .  A
N649        C653   1.345       .  A
N649       Cu657   2.075       .  S
N650        C651   1.343       .  A
N650       Cu656   2.068       .  S
C651        C652   1.386       .  A
C651        H654   1.081       .  S
C652        C653   1.388       .  A
C652       C1404   1.483       .  S
C653        H655   1.081       .  S
Cu656       N659   2.068       .  S
Cu657       N667   2.075       .  S
Cu658       N660   2.082       .  S
Cu658       N666   2.082       .  S
N659        N660   1.321       .  A
N659        C663   1.343       .  A
N660        C661   1.346       .  A
C661        C662   1.389       .  A
C661        H664   1.081       .  S
C662        C663   1.386       .  A
C662       C1427   1.485       .  S
C663        H665   1.081       .  S
N666        N667   1.322       .  A
N666        C670   1.345       .  A
N667        C668   1.346       .  A
C668        C669   1.387       .  A
C668        H671   1.081       .  S
C669        C670   1.389       .  A
C669       C1627   1.487       .  S
C670        H672   1.081       .  S
N673        N674   1.321       .  A
N673        C677   1.346       .  A
N673       Cu681   2.073       .  S
N674        C675   1.343       .  A
N674       Cu680   2.068       .  S
C675        C676   1.385       .  A
C675        H678   1.082       .  S
C676        C677   1.386       .  A
C676       C1407   1.479       .  S
C677        H679   1.082       .  S
Cu680       N683   2.068       .  S
Cu681       N691   2.074       .  S
Cu682       N684   2.077       .  S
Cu682       N690   2.078       .  S
N683        N684   1.321       .  A
N683        C687   1.342       .  A
N684        C685   1.347       .  A
C685        C686   1.388       .  A
C685        H688   1.082       .  S
C686        C687   1.385       .  A
C686       C1394   1.481       .  S
C687        H689   1.082       .  S
N690        N691   1.322       .  A
N690        C694   1.345       .  A
N691        C692   1.344       .  A
C692        C693   1.388       .  A
C692        H695   1.081       .  S
C693        C694   1.389       .  A
C693       C1384   1.487       .  S
C694        H696   1.081       .  S
N697        N698   1.321       .  A
N697        C701   1.346       .  A
N697       Cu705   2.073       .  S
N698        C699   1.342       .  A
N698       Cu704   2.069       .  S
C699        C700   1.385       .  A
C699        H702   1.081       .  S
C700        C701   1.387       .  A
C700       C1434   1.482       .  S
C701        H703   1.082       .  S
Cu704       N707   2.068       .  S
Cu705       N715   2.074       .  S
Cu706       N708   2.068       .  S
Cu706       N714   2.068       .  S
N707        N708   1.320       .  A
N707        C711   1.343       .  A
N708        C709   1.345       .  A
C709        C710   1.387       .  A
C709        H712   1.082       .  S
C710        C711   1.386       .  A
C710       C1397   1.481       .  S
C711        H713   1.082       .  S
N714        N715   1.322       .  A
N714        C718   1.342       .  A
N715        C716   1.344       .  A
C716        C717   1.388       .  A
C716        H719   1.081       .  S
C717        C718   1.386       .  A
C717       C1374   1.483       .  S
C718        H720   1.081       .  S
N721        N722   1.321       .  A
N721        C725   1.345       .  A
N721       Cu729   2.073       .  S
N722        C723   1.344       .  A
N722       Cu728   2.069       .  S
C723        C724   1.385       .  A
C723        H726   1.082       .  S
C724        C725   1.386       .  A
C724       C1364   1.480       .  S
C725        H727   1.082       .  S
Cu728       N731   2.069       .  S
Cu729       N739   2.073       .  S
Cu730       N732   2.081       .  S
Cu730       N738   2.082       .  S
N731        N732   1.322       .  A
N731        C735   1.344       .  A
N732        C733   1.347       .  A
C733        C734   1.385       .  A
C733        H736   1.082       .  S
C734        C735   1.381       .  A
C734       C1354   1.474       .  S
C735        H737   1.082       .  S
N738        N739   1.322       .  A
N738        C742   1.345       .  A
N739        C740   1.344       .  A
C740        C741   1.388       .  A
C740        H743   1.081       .  S
C741        C742   1.390       .  A
C741       C1727   1.489       .  S
C742        H744   1.081       .  S
N745        N746   1.321       .  A
N745        C749   1.346       .  A
N745       Cu753   2.077       .  S
N746        C747   1.344       .  A
N746       Cu752   2.071       .  S
C747        C748   1.385       .  A
C747        H750   1.082       .  S
C748        C749   1.386       .  A
C748       C1334   1.480       .  S
C749        H751   1.082       .  S
Cu752       N755   2.071       .  S
Cu753       N763   2.078       .  S
Cu754       N756   2.076       .  S
Cu754       N762   2.077       .  S
N755        N756   1.321       .  A
N755        C759   1.343       .  A
N756        C757   1.346       .  A
C757        C758   1.387       .  A
C757        H760   1.081       .  S
C758        C759   1.386       .  A
C758       C1344   1.483       .  S
C759        H761   1.081       .  S
N762        N763   1.321       .  A
N762        C766   1.345       .  A
N763        C764   1.344       .  A
C764        C765   1.389       .  A
C764        H767   1.081       .  S
C765        C766   1.389       .  A
C765       C1324   1.489       .  S
C766        H768   1.081       .  S
N769        N770   1.321       .  A
N769        C773   1.347       .  A
N769       Cu777   2.079       .  S
N770        C771   1.342       .  A
N770       Cu776   2.062       .  S
C771        C772   1.384       .  A
C771        H774   1.081       .  S
C772        C773   1.388       .  A
C772       C1347   1.482       .  S
C773        H775   1.082       .  S
Cu776       N779   2.061       .  S
Cu777       N787   2.080       .  S
Cu778       N780   2.074       .  S
Cu778       N786   2.075       .  S
N779        N780   1.320       .  A
N779        C783   1.341       .  A
N780        C781   1.346       .  A
C781        C782   1.388       .  A
C781        H784   1.082       .  S
C782        C783   1.385       .  A
C782       C1314   1.480       .  S
C783        H785   1.081       .  S
N786        N787   1.322       .  A
N786        C790   1.344       .  A
N787        C788   1.345       .  A
C788        C789   1.389       .  A
C788        H791   1.081       .  S
C789        C790   1.388       .  A
C789       C1667   1.488       .  S
C790        H792   1.081       .  S
N793        N794   1.321       .  A
N793        C797   1.345       .  A
N793       Cu801   2.075       .  S
N794        C795   1.341       .  A
N794       Cu800   2.060       .  S
C795        C796   1.384       .  A
C795        H798   1.081       .  S
C796        C797   1.388       .  A
C796       C1304   1.481       .  S
C797        H799   1.081       .  S
Cu800       N803   2.059       .  S
Cu801       N811   2.076       .  S
Cu802       N804   2.074       .  S
Cu802       N810   2.075       .  S
N803        N804   1.320       .  A
N803        C807   1.342       .  A
N804        C805   1.346       .  A
C805        C806   1.387       .  A
C805        H808   1.082       .  S
C806        C807   1.384       .  A
C806       C1317   1.479       .  S
C807        H809   1.082       .  S
N810        N811   1.322       .  A
N810        C814   1.344       .  A
N811        C812   1.345       .  A
C812        C813   1.388       .  A
C812        H815   1.081       .  S
C813        C814   1.387       .  A
C813       C1444   1.485       .  S
C814        H816   1.081       .  S
N817        N818   1.322       .  A
N817        C821   1.347       .  A
N817       Cu825   2.080       .  S
N818        C819   1.343       .  A
N818       Cu824   2.073       .  S
C819        C820   1.385       .  A
C819        H822   1.082       .  S
C820        C821   1.388       .  A
C820       C1337   1.482       .  S
C821        H823   1.082       .  S
Cu824       N827   2.072       .  S
Cu825       N835   2.081       .  S
Cu826       N828   2.071       .  S
Cu826       N834   2.072       .  S
N827        N828   1.321       .  A
N827        C831   1.345       .  A
N828        C829   1.345       .  A
C829        C830   1.384       .  A
C829        H832   1.082       .  S
C830        C831   1.384       .  A
C830       C1357   1.475       .  S
C831        H833   1.082       .  S
N834        N835   1.322       .  A
N834        C838   1.344       .  A
N835        C836   1.345       .  A
C836        C837   1.390       .  A
C836        H839   1.081       .  S
C837        C838   1.388       .  A
C837       C1387   1.488       .  S
C838        H840   1.081       .  S
N841        N842   1.321       .  A
N841        C845   1.345       .  A
N841       Cu849   2.073       .  S
N842        C843   1.343       .  A
N842       Cu848   2.068       .  S
C843        C844   1.385       .  A
C843        H846   1.081       .  S
C844        C845   1.387       .  A
C844       C1307   1.480       .  S
C845        H847   1.081       .  S
Cu848       N851   2.068       .  S
Cu849       N859   2.074       .  S
Cu850       N852   2.076       .  S
Cu850       N858   2.077       .  S
N851        N852   1.321       .  A
N851        C855   1.344       .  A
N852        C853   1.346       .  A
C853        C854   1.387       .  A
C853        H856   1.082       .  S
C854        C855   1.385       .  A
C854       C1367   1.481       .  S
C855        H857   1.082       .  S
N858        N859   1.321       .  A
N858        C862   1.343       .  A
N859        C860   1.345       .  A
C860        C861   1.389       .  A
C860        H863   1.081       .  S
C861        C862   1.389       .  A
C861       C1294   1.488       .  S
C862        H864   1.081       .  S
N865        N866   1.321       .  A
N865        C869   1.346       .  A
N865       Cu873   2.081       .  S
N866        C867   1.343       .  A
N866       Cu872   2.071       .  S
C867        C868   1.387       .  A
C867        H870   1.081       .  S
C868        C869   1.390       .  A
C868       C1284   1.487       .  S
C869        H871   1.081       .  S
Cu872       N875   2.071       .  S
Cu873       N883   2.081       .  S
Cu874       N876   2.075       .  S
Cu874       N882   2.075       .  S
N875        N876   1.320       .  A
N875        C879   1.344       .  A
N876        C877   1.346       .  A
C877        C878   1.388       .  A
C877        H880   1.081       .  S
C878        C879   1.387       .  A
C878       C1274   1.485       .  S
C879        H881   1.081       .  S
N882        N883   1.322       .  A
N882        C886   1.343       .  A
N883        C884   1.346       .  A
C884        C885   1.390       .  A
C884        H887   1.081       .  S
C885        C886   1.388       .  A
C885       C1264   1.489       .  S
C886        H888   1.081       .  S
N889        N890   1.321       .  A
N889        C893   1.346       .  A
N889       Cu897   2.075       .  S
N890        C891   1.344       .  A
N890       Cu896   2.070       .  S
C891        C892   1.386       .  A
C891        H894   1.082       .  S
C892        C893   1.387       .  A
C892       C1287   1.483       .  S
C893        H895   1.082       .  S
Cu896       N899   2.070       .  S
Cu897       N907   2.075       .  S
Cu898       N900   2.073       .  S
Cu898       N906   2.074       .  S
N899        N900   1.321       .  A
N899        C903   1.343       .  A
N900        C901   1.345       .  A
C901        C902   1.388       .  A
C901        H904   1.081       .  S
C902        C903   1.387       .  A
C902       C1254   1.485       .  S
C903        H905   1.081       .  S
N906        N907   1.321       .  A
N906        C910   1.344       .  A
N907        C908   1.344       .  A
C908        C909   1.388       .  A
C908        H911   1.081       .  S
C909        C910   1.388       .  A
C909       C1477   1.487       .  S
C910        H912   1.081       .  S
N913        N914   1.320       .  A
N913        C917   1.345       .  A
N913       Cu921   2.068       .  S
N914        C915   1.342       .  A
N914       Cu920   2.065       .  S
C915        C916   1.386       .  A
C915        H918   1.081       .  S
C916        C917   1.387       .  A
C916       C1247   1.481       .  S
C917        H919   1.081       .  S
Cu920       N923   2.065       .  S
Cu921       N931   2.069       .  S
Cu922       N924   2.071       .  S
Cu922       N930   2.071       .  S
N923        N924   1.320       .  A
N923        C927   1.342       .  A
N924        C925   1.345       .  A
C925        C926   1.386       .  A
C925        H928   1.082       .  S
C926        C927   1.385       .  A
C926       C1257   1.479       .  S
C927        H929   1.082       .  S
N930        N931   1.321       .  A
N930        C934   1.343       .  A
N931        C932   1.343       .  A
C932        C933   1.387       .  A
C932        H935   1.081       .  S
C933        C934   1.386       .  A
C933       C1377   1.482       .  S
C934        H936   1.081       .  S
N937        N938   1.321       .  A
N937        C941   1.346       .  A
N937       Cu945   2.073       .  S
N938        C939   1.342       .  A
N938       Cu944   2.064       .  S
C939        C940   1.384       .  A
C939        H942   1.082       .  S
C940        C941   1.386       .  A
C940       C1244   1.478       .  S
C941        H943   1.082       .  S
Cu944       N947   2.064       .  S
Cu945       N955   2.074       .  S
Cu946       N948   2.075       .  S
Cu946       N954   2.075       .  S
N947        N948   1.320       .  A
N947        C951   1.343       .  A
N948        C949   1.346       .  A
C949        C950   1.388       .  A
C949        H952   1.082       .  S
C950        C951   1.385       .  A
C950       C1234   1.481       .  S
C951        H953   1.082       .  S
N954        N955   1.322       .  A
N954        C958   1.343       .  A
N955        C956   1.345       .  A
C956        C957   1.389       .  A
C956        H959   1.081       .  S
C957        C958   1.388       .  A
C957       C1224   1.487       .  S
C958        H960   1.081       .  S
N961        N962   1.321       .  A
N961        C965   1.347       .  A
N961       Cu969   2.079       .  S
N962        C963   1.344       .  A
N962       Cu968   2.072       .  S
C963        C964   1.386       .  A
C963        H966   1.082       .  S
C964        C965   1.388       .  A
C964       C1277   1.483       .  S
C965        H967   1.082       .  S
Cu968       N971   2.072       .  S
Cu969       N979   2.080       .  S
Cu970       N972   2.083       .  S
Cu970       N978   2.083       .  S
N971        N972   1.321       .  A
N971        C975   1.343       .  A
N972        C973   1.348       .  A
C973        C974   1.390       .  A
C973        H976   1.081       .  S
C974        C975   1.387       .  A
C974       C1214   1.487       .  S
C975        H977   1.081       .  S
N978        N979   1.323       .  A
N978        C982   1.345       .  A
N979        C980   1.345       .  A
C980        C981   1.388       .  A
C980        H983   1.081       .  S
C981        C982   1.388       .  A
C981       C1417   1.487       .  S
C982        H984   1.081       .  S
N985        N986   1.321       .  A
N985        C989   1.347       .  A
N985       Cu993   2.079       .  S
N986        C987   1.344       .  A
N986       Cu992   2.073       .  S
C987        C988   1.387       .  A
C987        H990   1.082       .  S
C988        C989   1.388       .  A
C988       C1217   1.485       .  S
C989        H991   1.082       .  S
Cu992       N995   2.073       .  S
Cu993      N1003   2.079       .  S
Cu994       N996   2.080       .  S
Cu994      N1002   2.081       .  S
N995        N996   1.321       .  A
N995        C999   1.343       .  A
N996        C997   1.346       .  A
C997        C998   1.389       .  A
C997       H1000   1.081       .  S
C998        C999   1.387       .  A
C998       C1237   1.486       .  S
C999       H1001   1.081       .  S
N1002      N1003   1.322       .  A
N1002      C1006   1.346       .  A
N1003      C1004   1.344       .  A
C1004      C1005   1.388       .  A
C1004      H1007   1.081       .  S
C1005      C1006   1.390       .  A
C1005      C1487   1.489       .  S
C1006      H1008   1.081       .  S
N1009      N1010   1.321       .  A
N1009      C1013   1.345       .  A
N1009     Cu1017   2.073       .  S
N1010      C1011   1.344       .  A
N1010     Cu1016   2.075       .  S
C1011      C1012   1.389       .  A
C1011      H1014   1.081       .  S
C1012      C1013   1.388       .  A
C1012      C1207   1.487       .  S
C1013      H1015   1.081       .  S
Cu1016     N1019   2.074       .  S
Cu1017     N1027   2.073       .  S
Cu1018     N1020   2.071       .  S
Cu1018     N1026   2.071       .  S
N1019      N1020   1.321       .  A
N1019      C1023   1.344       .  A
N1020      C1021   1.345       .  A
C1021      C1022   1.386       .  A
C1021      H1024   1.082       .  S
C1022      C1023   1.386       .  A
C1022      C1194   1.481       .  S
C1023      H1025   1.082       .  S
N1026      N1027   1.321       .  A
N1026      C1030   1.344       .  A
N1027      C1028   1.344       .  A
C1028      C1029   1.387       .  A
C1028      H1031   1.081       .  S
C1029      C1030   1.387       .  A
C1029      C1787   1.484       .  S
C1030      H1032   1.081       .  S
N1033      N1034   1.321       .  A
N1033      C1037   1.346       .  A
N1033     Cu1041   2.073       .  S
N1034      C1035   1.342       .  A
N1034     Cu1040   2.066       .  S
C1035      C1036   1.386       .  A
C1035      H1038   1.081       .  S
C1036      C1037   1.387       .  A
C1036      C1184   1.482       .  S
C1037      H1039   1.082       .  S
Cu1040     N1043   2.067       .  S
Cu1041     N1051   2.074       .  S
Cu1042     N1044   2.080       .  S
Cu1042     N1050   2.081       .  S
N1043      N1044   1.321       .  A
N1043      C1047   1.343       .  A
N1044      C1045   1.347       .  A
C1045      C1046   1.387       .  A
C1045      H1048   1.082       .  S
C1046      C1047   1.384       .  A
C1046      C1204   1.480       .  S
C1047      H1049   1.082       .  S
N1050      N1051   1.322       .  A
N1050      C1054   1.344       .  A
N1051      C1052   1.345       .  A
C1052      C1053   1.388       .  A
C1052      H1055   1.081       .  S
C1053      C1054   1.389       .  A
C1053      C1297   1.488       .  S
C1054      H1056   1.081       .  S
N1057      N1058   1.321       .  A
N1057      C1061   1.345       .  A
N1057     Cu1065   2.076       .  S
N1058      C1059   1.343       .  A
N1058     Cu1064   2.064       .  S
C1059      C1060   1.385       .  A
C1059      H1062   1.081       .  S
C1060      C1061   1.387       .  A
C1060      C1187   1.481       .  S
C1061      H1063   1.081       .  S
Cu1064     N1067   2.064       .  S
Cu1065     N1075   2.077       .  S
Cu1066     N1068   2.071       .  S
Cu1066     N1074   2.072       .  S
N1067      N1068   1.321       .  A
N1067      C1071   1.343       .  A
N1068      C1069   1.344       .  A
C1069      C1070   1.385       .  A
C1069      H1072   1.082       .  S
C1070      C1071   1.384       .  A
C1070      C1174   1.477       .  S
C1071      H1073   1.082       .  S
N1074      N1075   1.321       .  A
N1074      C1078   1.344       .  A
N1075      C1076   1.344       .  A
C1076      C1077   1.390       .  A
C1076      H1079   1.081       .  S
C1077      C1078   1.389       .  A
C1077      C1267   1.489       .  S
C1078      H1080   1.081       .  S
N1081      N1082   1.322       .  A
N1081      C1085   1.345       .  A
N1081     Cu1089   2.074       .  S
N1082      C1083   1.344       .  A
N1082     Cu1088   2.072       .  S
C1083      C1084   1.386       .  A
C1083      H1086   1.082       .  S
C1084      C1085   1.386       .  A
C1084      C1154   1.480       .  S
C1085      H1087   1.082       .  S
Cu1088     N1091   2.073       .  S
Cu1089     N1099   2.075       .  S
Cu1090     N1092   2.075       .  S
Cu1090     N1098   2.076       .  S
N1091      N1092   1.321       .  A
N1091      C1095   1.344       .  A
N1092      C1093   1.346       .  A
C1093      C1094   1.386       .  A
C1093      H1096   1.082       .  S
C1094      C1095   1.386       .  A
C1094      C1164   1.481       .  S
C1095      H1097   1.082       .  S
N1098      N1099   1.321       .  A
N1098      C1102   1.344       .  A
N1099      C1100   1.345       .  A
C1100      C1101   1.389       .  A
C1100      H1103   1.081       .  S
C1101      C1102   1.389       .  A
C1101      C1327   1.489       .  S
C1102      H1104   1.081       .  S
N1105      N1106   1.321       .  A
N1105      C1109   1.344       .  A
N1105     Cu1113   2.068       .  S
N1106      C1107   1.342       .  A
N1106     Cu1112   2.066       .  S
C1107      C1108   1.385       .  A
C1107      H1110   1.081       .  S
C1108      C1109   1.386       .  A
C1108      C1177   1.479       .  S
C1109      H1111   1.082       .  S
Cu1112     N1115   2.066       .  S
Cu1113     N1123   2.068       .  S
Cu1114     N1116   2.078       .  S
Cu1114     N1122   2.078       .  S
N1115      N1116   1.321       .  A
N1115      C1119   1.343       .  A
N1116      C1117   1.347       .  A
C1117      C1118   1.387       .  A
C1117      H1120   1.082       .  S
C1118      C1119   1.385       .  A
C1118      C1167   1.481       .  S
C1119      H1121   1.082       .  S
N1122      N1123   1.321       .  A
N1122      C1126   1.343       .  A
N1123      C1124   1.344       .  A
C1124      C1125   1.388       .  A
C1124      H1127   1.081       .  S
C1125      C1126   1.389       .  A
C1125      C1807   1.487       .  S
C1126      H1128   1.081       .  S
N1129      N1130   1.321       .  A
N1129      C1133   1.346       .  A
N1129     Cu1137   2.079       .  S
N1130      C1131   1.342       .  A
N1130     Cu1136   2.062       .  S
C1131      C1132   1.385       .  A
C1131      H1134   1.081       .  S
C1132      C1133   1.389       .  A
C1132      C1197   1.483       .  S
C1133      H1135   1.081       .  S
Cu1136     N1139   2.062       .  S
Cu1137     N1147   2.079       .  S
Cu1138     N1140   2.071       .  S
Cu1138     N1146   2.071       .  S
N1139      N1140   1.320       .  A
N1139      C1143   1.342       .  A
N1140      C1141   1.345       .  A
C1141      C1142   1.388       .  A
C1141      H1144   1.082       .  S
C1142      C1143   1.385       .  A
C1142      C1157   1.481       .  S
C1143      H1145   1.081       .  S
N1146      N1147   1.322       .  A
N1146      C1150   1.343       .  A
N1147      C1148   1.345       .  A
C1148      C1149   1.390       .  A
C1148      H1151   1.081       .  S
C1149      C1150   1.387       .  A
C1149      C1227   1.487       .  S
C1150      H1152   1.081       .  S
C1153      C1154   1.405       .  A
C1153      C1158   1.399       .  A
C1153      H1159   1.082       .  S
C1154      C1155   1.404       .  A
C1155      C1156   1.396       .  A
C1155      H1160   1.082       .  S
C1156      C1157   1.405       .  A
C1156      H1161   1.082       .  S
C1157      C1158   1.405       .  A
C1158      H1162   1.082       .  S
C1163      C1164   1.404       .  A
C1163      C1168   1.396       .  A
C1163      H1169   1.082       .  S
C1164      C1165   1.406       .  A
C1165      C1166   1.401       .  A
C1165      H1170   1.083       .  S
C1166      C1167   1.405       .  A
C1166      H1171   1.083       .  S
C1167      C1168   1.405       .  A
C1168      H1172   1.082       .  S
C1173      C1174   1.404       .  A
C1173      C1178   1.397       .  A
C1173      H1179   1.082       .  S
C1174      C1175   1.404       .  A
C1175      C1176   1.395       .  A
C1175      H1180   1.082       .  S
C1176      C1177   1.404       .  A
C1176      H1181   1.082       .  S
C1177      C1178   1.405       .  A
C1178      H1182   1.082       .  S
C1183      C1184   1.405       .  A
C1183      C1188   1.396       .  A
C1183      H1189   1.082       .  S
C1184      C1185   1.405       .  A
C1185      C1186   1.399       .  A
C1185      H1190   1.082       .  S
C1186      C1187   1.405       .  A
C1186      H1191   1.082       .  S
C1187      C1188   1.405       .  A
C1188      H1192   1.082       .  S
C1193      C1194   1.405       .  A
C1193      C1198   1.399       .  A
C1193      H1199   1.082       .  S
C1194      C1195   1.404       .  A
C1195      C1196   1.396       .  A
C1195      H1200   1.082       .  S
C1196      C1197   1.406       .  A
C1196      H1201   1.082       .  S
C1197      C1198   1.405       .  A
C1198      H1202   1.082       .  S
C1203      C1204   1.404       .  A
C1203      C1208   1.397       .  A
C1203      H1209   1.083       .  S
C1204      C1205   1.404       .  A
C1205      C1206   1.400       .  A
C1205      H1210   1.083       .  S
C1206      C1207   1.408       .  A
C1206      H1211   1.081       .  S
C1207      C1208   1.406       .  A
C1208      H1212   1.081       .  S
C1213      C1214   1.407       .  A
C1213      C1218   1.402       .  A
C1213      H1219   1.082       .  S
C1214      C1215   1.406       .  A
C1215      C1216   1.397       .  A
C1215      H1220   1.082       .  S
C1216      C1217   1.404       .  A
C1216      H1221   1.082       .  S
C1217      C1218   1.406       .  A
C1218      H1222   1.082       .  S
C1223      C1224   1.406       .  A
C1223      C1228   1.398       .  A
C1223      H1229   1.081       .  S
C1224      C1225   1.406       .  A
C1225      C1226   1.397       .  A
C1225      H1230   1.081       .  S
C1226      C1227   1.405       .  A
C1226      H1231   1.081       .  S
C1227      C1228   1.407       .  A
C1228      H1232   1.081       .  S
C1233      C1234   1.405       .  A
C1233      C1238   1.400       .  A
C1233      H1239   1.082       .  S
C1234      C1235   1.404       .  A
C1235      C1236   1.397       .  A
C1235      H1240   1.082       .  S
C1236      C1237   1.406       .  A
C1236      H1241   1.081       .  S
C1237      C1238   1.407       .  A
C1238      H1242   1.082       .  S
C1243      C1244   1.404       .  A
C1243      C1248   1.394       .  A
C1243      H1249   1.082       .  S
C1244      C1245   1.404       .  A
C1245      C1246   1.399       .  A
C1245      H1250   1.083       .  S
C1246      C1247   1.406       .  A
C1246      H1251   1.082       .  S
C1247      C1248   1.405       .  A
C1248      H1252   1.082       .  S
C1253      C1254   1.407       .  A
C1253      C1258   1.399       .  A
C1253      H1259   1.082       .  S
C1254      C1255   1.406       .  A
C1255      C1256   1.395       .  A
C1255      H1260   1.081       .  S
C1256      C1257   1.404       .  A
C1256      H1261   1.082       .  S
C1257      C1258   1.404       .  A
C1258      H1262   1.082       .  S
C1263      C1264   1.406       .  A
C1263      C1268   1.399   1_455  A
C1263      H1269   1.081       .  S
C1264      C1265   1.407       .  A
C1265      C1266   1.397       .  A
C1265      H1270   1.081       .  S
C1266      C1267   1.406   1_455  A
C1266      H1271   1.081   1_455  S
C1267      C1268   1.407       .  A
C1268      H1272   1.081       .  S
C1273      C1274   1.407       .  A
C1273      C1278   1.400       .  A
C1273      H1279   1.082       .  S
C1274      C1275   1.406       .  A
C1275      C1276   1.397       .  A
C1275      H1280   1.082       .  S
C1276      C1277   1.405       .  A
C1276      H1281   1.082       .  S
C1277      C1278   1.405       .  A
C1278      H1282   1.083       .  S
C1283      C1284   1.407       .  A
C1283      C1288   1.397       .  A
C1283      H1289   1.081       .  S
C1284      C1285   1.406       .  A
C1285      C1286   1.400       .  A
C1285      H1290   1.082       .  S
C1286      C1287   1.405       .  A
C1286      H1291   1.082       .  S
C1287      C1288   1.404       .  A
C1288      H1292   1.082       .  S
C1293      C1294   1.406       .  A
C1293      C1298   1.397       .  A
C1293      H1299   1.081       .  S
C1294      C1295   1.406       .  A
C1295      C1296   1.399       .  A
C1295      H1300   1.081       .  S
C1296      C1297   1.407       .  A
C1296      H1301   1.081       .  S
C1297      C1298   1.405       .  A
C1298      H1302   1.081       .  S
C1303      C1304   1.405       .  A
C1303      C1308   1.395       .  A
C1303      H1309   1.082       .  S
C1304      C1305   1.405       .  A
C1305      C1306   1.398       .  A
C1305      H1310   1.082       .  S
C1306      C1307   1.405       .  A
C1306      H1311   1.082       .  S
C1307      C1308   1.404       .  A
C1308      H1312   1.082       .  S
C1313      C1314   1.405       .  A
C1313      C1318   1.399       .  A
C1313      H1319   1.082       .  S
C1314      C1315   1.405       .  A
C1315      C1316   1.394       .  A
C1315      H1320   1.082       .  S
C1316      C1317   1.404       .  A
C1316      H1321   1.082       .  S
C1317      C1318   1.405       .  A
C1318      H1322   1.082       .  S
C1323      C1324   1.406       .  A
C1323      C1328   1.399   1_565  A
C1323      H1329   1.081       .  S
C1324      C1325   1.406       .  A
C1325      C1326   1.398   1_565  A
C1325      H1330   1.081       .  S
C1326      C1327   1.406       .  A
C1326      H1331   1.081       .  S
C1327      C1328   1.407       .  A
C1328      H1332   1.081       .  S
C1333      C1334   1.404       .  A
C1333      C1338   1.397       .  A
C1333      H1339   1.083       .  S
C1334      C1335   1.405       .  A
C1335      C1336   1.401       .  A
C1335      H1340   1.083       .  S
C1336      C1337   1.405       .  A
C1336      H1341   1.083       .  S
C1337      C1338   1.405       .  A
C1338      H1342   1.082       .  S
C1343      C1344   1.405       .  A
C1343      C1348   1.395       .  A
C1343      H1349   1.082       .  S
C1344      C1345   1.406       .  A
C1345      C1346   1.400       .  A
C1345      H1350   1.082       .  S
C1346      C1347   1.405       .  A
C1346      H1351   1.082       .  S
C1347      C1348   1.405       .  A
C1348      H1352   1.082       .  S
C1353      C1354   1.403       .  A
C1353      C1358   1.398       .  A
C1353      H1359   1.083       .  S
C1354      C1355   1.404       .  A
C1355      C1356   1.399       .  A
C1355      H1360   1.083       .  S
C1356      C1357   1.404       .  A
C1356      H1361   1.083       .  S
C1357      C1358   1.404       .  A
C1358      H1362   1.083       .  S
C1363      C1364   1.405       .  A
C1363      C1368   1.397       .  A
C1363      H1369   1.082       .  S
C1364      C1365   1.405       .  A
C1365      C1366   1.399       .  A
C1365      H1370   1.083       .  S
C1366      C1367   1.405       .  A
C1366      H1371   1.082       .  S
C1367      C1368   1.405       .  A
C1368      H1372   1.082       .  S
C1373      C1374   1.406       .  A
C1373      C1378   1.396   1_565  A
C1373      H1379   1.081       .  S
C1374      C1375   1.405       .  A
C1375      C1376   1.397   1_565  A
C1375      H1380   1.081       .  S
C1376      C1377   1.405       .  A
C1376      H1381   1.082       .  S
C1377      C1378   1.405       .  A
C1378      H1382   1.081       .  S
C1383      C1384   1.406       .  A
C1383      C1388   1.398       .  A
C1383      H1389   1.081       .  S
C1384      C1385   1.406       .  A
C1385      C1386   1.398       .  A
C1385      H1390   1.081       .  S
C1386      C1387   1.406       .  A
C1386      H1391   1.081       .  S
C1387      C1388   1.407       .  A
C1388      H1392   1.081       .  S
C1393      C1394   1.405       .  A
C1393      C1398   1.400       .  A
C1393      H1399   1.082       .  S
C1394      C1395   1.405       .  A
C1395      C1396   1.395       .  A
C1395      H1400   1.082       .  S
C1396      C1397   1.404       .  A
C1396      H1401   1.082       .  S
C1397      C1398   1.406       .  A
C1398      H1402   1.082       .  S
C1403      C1404   1.406       .  A
C1403      C1408   1.396       .  A
C1403      H1409   1.082       .  S
C1404      C1405   1.406       .  A
C1405      C1406   1.399       .  A
C1405      H1410   1.082       .  S
C1406      C1407   1.404       .  A
C1406      H1411   1.083       .  S
C1407      C1408   1.404       .  A
C1408      H1412   1.083       .  S
C1413      C1414   1.406       .  A
C1413      C1418   1.398       .  A
C1413      H1419   1.082       .  S
C1414      C1415   1.405       .  A
C1415      C1416   1.400       .  A
C1415      H1420   1.082       .  S
C1416      C1417   1.407       .  A
C1416      H1421   1.082       .  S
C1417      C1418   1.406       .  A
C1418      H1422   1.082       .  S
C1423      C1424   1.405       .  A
C1423      C1428   1.398       .  A
C1423      H1429   1.082       .  S
C1424      C1425   1.406       .  A
C1425      C1426   1.399       .  A
C1425      H1430   1.082       .  S
C1426      C1427   1.405       .  A
C1426      H1431   1.082       .  S
C1427      C1428   1.406       .  A
C1428      H1432   1.082       .  S
C1433      C1434   1.405       .  A
C1433      C1438   1.400       .  A
C1433      H1439   1.082       .  S
C1434      C1435   1.404       .  A
C1435      C1436   1.395       .  A
C1435      H1440   1.082       .  S
C1436      C1437   1.405       .  A
C1436      H1441   1.081       .  S
C1437      C1438   1.406       .  A
C1438      H1442   1.082       .  S
C1443      C1444   1.406   1_455  A
C1443      C1448   1.398       .  A
C1443      H1449   1.082   1_455  S
C1444      C1445   1.405   1_655  A
C1445      C1446   1.398       .  A
C1445      H1450   1.082   1_455  S
C1446      C1447   1.406       .  A
C1446      H1451   1.082       .  S
C1447      C1448   1.405       .  A
C1448      H1452   1.082       .  S
C1453      C1454   1.405       .  A
C1453      C1458   1.400       .  A
C1453      H1459   1.082       .  S
C1454      C1455   1.404       .  A
C1455      C1456   1.396       .  A
C1455      H1460   1.082       .  S
C1456      C1457   1.406       .  A
C1456      H1461   1.081       .  S
C1457      C1458   1.407       .  A
C1458      H1462   1.082       .  S
C1463      C1464   1.405       .  A
C1463      C1468   1.396       .  A
C1463      H1469   1.082       .  S
C1464      C1465   1.405       .  A
C1465      C1466   1.400       .  A
C1465      H1470   1.082       .  S
C1466      C1467   1.405       .  A
C1466      H1471   1.082       .  S
C1467      C1468   1.405       .  A
C1468      H1472   1.082       .  S
C1473      C1474   1.406       .  A
C1473      C1478   1.397       .  A
C1473      H1479   1.081       .  S
C1474      C1475   1.406       .  A
C1475      C1476   1.398       .  A
C1475      H1480   1.081       .  S
C1476      C1477   1.406       .  A
C1476      H1481   1.081       .  S
C1477      C1478   1.406       .  A
C1478      H1482   1.081       .  S
C1483      C1484   1.406       .  A
C1483      C1488   1.400   1_556  A
C1483      H1489   1.082       .  S
C1484      C1485   1.406       .  A
C1485      C1486   1.399   1_556  A
C1485      H1490   1.081       .  S
C1486      C1487   1.407       .  A
C1486      H1491   1.081       .  S
C1487      C1488   1.406       .  A
C1488      H1492   1.081       .  S
C1493      C1494   1.404       .  A
C1493      C1498   1.400       .  A
C1493      H1499   1.082       .  S
C1494      C1495   1.406       .  A
C1495      C1496   1.398       .  A
C1495      H1500   1.082       .  S
C1496      C1497   1.405       .  A
C1496      H1501   1.082       .  S
C1497      C1498   1.406       .  A
C1498      H1502   1.082       .  S
C1503      C1504   1.407       .  A
C1503      C1508   1.401       .  A
C1503      H1509   1.082       .  S
C1504      C1505   1.406       .  A
C1505      C1506   1.397       .  A
C1505      H1510   1.081       .  S
C1506      C1507   1.405       .  A
C1506      H1511   1.082       .  S
C1507      C1508   1.406       .  A
C1508      H1512   1.082       .  S
C1513      C1514   1.406       .  A
C1513      C1518   1.400       .  A
C1513      H1519   1.082       .  S
C1514      C1515   1.404       .  A
C1515      C1516   1.397       .  A
C1515      H1520   1.082       .  S
C1516      C1517   1.406       .  A
C1516      H1521   1.081       .  S
C1517      C1518   1.406       .  A
C1518      H1522   1.082       .  S
C1523      C1524   1.406       .  A
C1523      C1528   1.402       .  A
C1523      H1529   1.082       .  S
C1524      C1525   1.404       .  A
C1525      C1526   1.396       .  A
C1525      H1530   1.082       .  S
C1526      C1527   1.406       .  A
C1526      H1531   1.081       .  S
C1527      C1528   1.407       .  A
C1528      H1532   1.082       .  S
C1533      C1534   1.406       .  A
C1533      C1538   1.396       .  A
C1533      H1539   1.082       .  S
C1534      C1535   1.405       .  A
C1535      C1536   1.399       .  A
C1535      H1540   1.082       .  S
C1536      C1537   1.406       .  A
C1536      H1541   1.082       .  S
C1537      C1538   1.404       .  A
C1538      H1542   1.082       .  S
C1543      C1544   1.407       .  A
C1543      C1548   1.397       .  A
C1543      H1549   1.081       .  S
C1544      C1545   1.406       .  A
C1545      C1546   1.400       .  A
C1545      H1550   1.082       .  S
C1546      C1547   1.406       .  A
C1546      H1551   1.082       .  S
C1547      C1548   1.403       .  A
C1548      H1552   1.082       .  S
C1553      C1554   1.407       .  A
C1553      C1558   1.399       .  A
C1553      H1559   1.081       .  S
C1554      C1555   1.406       .  A
C1555      C1556   1.399       .  A
C1555      H1560   1.081       .  S
C1556      C1557   1.407       .  A
C1556      H1561   1.081       .  S
C1557      C1558   1.406       .  A
C1558      H1562   1.081       .  S
C1563      C1564   1.406       .  A
C1563      C1568   1.398       .  A
C1563      H1569   1.081       .  S
C1564      C1565   1.406       .  A
C1565      C1566   1.398       .  A
C1565      H1570   1.081       .  S
C1566      C1567   1.406       .  A
C1566      H1571   1.081       .  S
C1567      C1568   1.406       .  A
C1568      H1572   1.081       .  S
C1573      C1574   1.404       .  A
C1573      C1578   1.399       .  A
C1573      H1579   1.082       .  S
C1574      C1575   1.404       .  A
C1575      C1576   1.396       .  A
C1575      H1580   1.082       .  S
C1576      C1577   1.406       .  A
C1576      H1581   1.082       .  S
C1577      C1578   1.406       .  A
C1578      H1582   1.082       .  S
C1583      C1584   1.407       .  A
C1583      C1588   1.401       .  A
C1583      H1589   1.082       .  S
C1584      C1585   1.406       .  A
C1585      C1586   1.396       .  A
C1585      H1590   1.081       .  S
C1586      C1587   1.404       .  A
C1586      H1591   1.082       .  S
C1587      C1588   1.405       .  A
C1588      H1592   1.083       .  S
C1593      C1594   1.406       .  A
C1593      C1598   1.399   1_565  A
C1593      H1599   1.081       .  S
C1594      C1595   1.406       .  A
C1595      C1596   1.397   1_565  A
C1595      H1600   1.081       .  S
C1596      C1597   1.406       .  A
C1596      H1601   1.081       .  S
C1597      C1598   1.406       .  A
C1598      H1602   1.081       .  S
C1603      C1604   1.407       .  A
C1603      C1608   1.401       .  A
C1603      H1609   1.082       .  S
C1604      C1605   1.406       .  A
C1605      C1606   1.398       .  A
C1605      H1610   1.082       .  S
C1606      C1607   1.406       .  A
C1606      H1611   1.082       .  S
C1607      C1608   1.405       .  A
C1608      H1612   1.082       .  S
C1613      C1614   1.407       .  A
C1613      C1618   1.400       .  A
C1613      H1619   1.082       .  S
C1614      C1615   1.406       .  A
C1615      C1616   1.397       .  A
C1615      H1620   1.081       .  S
C1616      C1617   1.404       .  A
C1616      H1621   1.082       .  S
C1617      C1618   1.405       .  A
C1618      H1622   1.082       .  S
C1623      C1624   1.407   1_554  A
C1623      C1628   1.401       .  A
C1623      H1629   1.082   1_554  S
C1624      C1625   1.406   1_556  A
C1625      C1626   1.398       .  A
C1625      H1630   1.081   1_554  S
C1626      C1627   1.405       .  A
C1626      H1631   1.082       .  S
C1627      C1628   1.406       .  A
C1628      H1632   1.082       .  S
C1633      C1634   1.405       .  A
C1633      C1638   1.397       .  A
C1633      H1639   1.082       .  S
C1634      C1635   1.406       .  A
C1635      C1636   1.401       .  A
C1635      H1640   1.082       .  S
C1636      C1637   1.407       .  A
C1636      H1641   1.082       .  S
C1637      C1638   1.405       .  A
C1638      H1642   1.082       .  S
C1643      C1644   1.405       .  A
C1643      C1648   1.397       .  A
C1643      H1649   1.082       .  S
C1644      C1645   1.407       .  A
C1645      C1646   1.401       .  A
C1645      H1650   1.082       .  S
C1646      C1647   1.405       .  A
C1646      H1651   1.082       .  S
C1647      C1648   1.405       .  A
C1648      H1652   1.082       .  S
C1653      C1654   1.407       .  A
C1653      C1658   1.400       .  A
C1653      H1659   1.081       .  S
C1654      C1655   1.407       .  A
C1655      C1656   1.399       .  A
C1655      H1660   1.081       .  S
C1656      C1657   1.406       .  A
C1656      H1661   1.081       .  S
C1657      C1658   1.407       .  A
C1658      H1662   1.081       .  S
C1663      C1664   1.406       .  A
C1663      C1668   1.398       .  A
C1663      H1669   1.081       .  S
C1664      C1665   1.406       .  A
C1665      C1666   1.398       .  A
C1665      H1670   1.082       .  S
C1666      C1667   1.407       .  A
C1666      H1671   1.081       .  S
C1667      C1668   1.406       .  A
C1668      H1672   1.081       .  S
C1673      C1674   1.405       .  A
C1673      C1678   1.396   1_655  A
C1673      H1679   1.081       .  S
C1674      C1675   1.407       .  A
C1675      C1676   1.401   1_655  A
C1675      H1680   1.082       .  S
C1676      C1677   1.407       .  A
C1676      H1681   1.082       .  S
C1677      C1678   1.405       .  A
C1678      H1682   1.081       .  S
C1683      C1684   1.404       .  A
C1683      C1688   1.400       .  A
C1683      H1689   1.083       .  S
C1684      C1685   1.404       .  A
C1685      C1686   1.398       .  A
C1685      H1690   1.083       .  S
C1686      C1687   1.406       .  A
C1686      H1691   1.082       .  S
C1687      C1688   1.407       .  A
C1688      H1692   1.082       .  S
C1693      C1694   1.406       .  A
C1693      C1698   1.400       .  A
C1693      H1699   1.082       .  S
C1694      C1695   1.405       .  A
C1695      C1696   1.395       .  A
C1695      H1700   1.082       .  S
C1696      C1697   1.404       .  A
C1696      H1701   1.082       .  S
C1697      C1698   1.406       .  A
C1698      H1702   1.082       .  S
C1703      C1704   1.408       .  A
C1703      C1708   1.403       .  A
C1703      H1709   1.082       .  S
C1704      C1705   1.406       .  A
C1705      C1706   1.396       .  A
C1705      H1710   1.081       .  S
C1706      C1707   1.404       .  A
C1706      H1711   1.082       .  S
C1707      C1708   1.405       .  A
C1708      H1712   1.083       .  S
C1713      C1714   1.406       .  A
C1713      C1718   1.396       .  A
C1713      H1719   1.081       .  S
C1714      C1715   1.407       .  A
C1715      C1716   1.401       .  A
C1715      H1720   1.082       .  S
C1716      C1717   1.405       .  A
C1716      H1721   1.082       .  S
C1717      C1718   1.404       .  A
C1718      H1722   1.082       .  S
C1723      C1724   1.406       .  A
C1723      C1728   1.397   1_556  A
C1723      H1729   1.081       .  S
C1724      C1725   1.406       .  A
C1725      C1726   1.399   1_556  A
C1725      H1730   1.081       .  S
C1726      C1727   1.407       .  A
C1726      H1731   1.081       .  S
C1727      C1728   1.406       .  A
C1728      H1732   1.081       .  S
C1733      C1734   1.404       .  A
C1733      C1738   1.395       .  A
C1733      H1739   1.082       .  S
C1734      C1735   1.405       .  A
C1735      C1736   1.399       .  A
C1735      H1740   1.083       .  S
C1736      C1737   1.405       .  A
C1736      H1741   1.082       .  S
C1737      C1738   1.405       .  A
C1738      H1742   1.082       .  S
C1743      C1744   1.406       .  A
C1743      C1748   1.400       .  A
C1743      H1749   1.082       .  S
C1744      C1745   1.407       .  A
C1745      C1746   1.397       .  A
C1745      H1750   1.081       .  S
C1746      C1747   1.404       .  A
C1746      H1751   1.083       .  S
C1747      C1748   1.404       .  A
C1748      H1752   1.083       .  S
C1753      C1754   1.405       .  A
C1753      C1758   1.397       .  A
C1753      H1759   1.081       .  S
C1754      C1755   1.407       .  A
C1755      C1756   1.399       .  A
C1755      H1760   1.081       .  S
C1756      C1757   1.406       .  A
C1756      H1761   1.082       .  S
C1757      C1758   1.405       .  A
C1758      H1762   1.082       .  S
C1763      C1764   1.406   1_455  A
C1763      C1768   1.397       .  A
C1763      H1769   1.081   1_455  S
C1764      C1765   1.407   1_655  A
C1765      C1766   1.399       .  A
C1765      H1770   1.081   1_455  S
C1766      C1767   1.406       .  A
C1766      H1771   1.082       .  S
C1767      C1768   1.405       .  A
C1768      H1772   1.081       .  S
C1773      C1774   1.405       .  A
C1773      C1778   1.396       .  A
C1773      H1779   1.081       .  S
C1774      C1775   1.406       .  A
C1775      C1776   1.399       .  A
C1775      H1780   1.082       .  S
C1776      C1777   1.405       .  A
C1776      H1781   1.082       .  S
C1777      C1778   1.405       .  A
C1778      H1782   1.082       .  S
C1783      C1784   1.406   1_554  A
C1783      C1788   1.397       .  A
C1783      H1789   1.081   1_554  S
C1784      C1785   1.406   1_556  A
C1785      C1786   1.398       .  A
C1785      H1790   1.081   1_554  S
C1786      C1787   1.405       .  A
C1786      H1791   1.082       .  S
C1787      C1788   1.405       .  A
C1788      H1792   1.082       .  S
C1793      C1794   1.405       .  A
C1793      C1798   1.396       .  A
C1793      H1799   1.081       .  S
C1794      C1795   1.407       .  A
C1795      C1796   1.403       .  A
C1795      H1800   1.082       .  S
C1796      C1797   1.407       .  A
C1796      H1801   1.082       .  S
C1797      C1798   1.405       .  A
C1798      H1802   1.082       .  S
C1803      C1804   1.405       .  A
C1803      C1808   1.399       .  A
C1803      H1809   1.082       .  S
C1804      C1805   1.404       .  A
C1805      C1806   1.396       .  A
C1805      H1810   1.082       .  S
C1806      C1807   1.406       .  A
C1806      H1811   1.081       .  S
C1807      C1808   1.408       .  A
C1808      H1812   1.081       .  S
C1813      C1814   1.405       .  A
C1813      C1818   1.399       .  A
C1813      H1819   1.082       .  S
C1814      C1815   1.405       .  A
C1815      C1816   1.397       .  A
C1815      H1820   1.082       .  S
C1816      C1817   1.405       .  A
C1816      H1821   1.082       .  S
C1817      C1818   1.405       .  A
C1818      H1822   1.082       .  S
C1823      C1824   1.406       .  A
C1823      C1828   1.398       .  A
C1823      H1829   1.082       .  S
C1824      C1825   1.406       .  A
C1825      C1826   1.402       .  A
C1825      H1830   1.082       .  S
C1826      C1827   1.408       .  A
C1826      H1831   1.081       .  S
C1827      C1828   1.406       .  A
C1828      H1832   1.081       .  S
C1833      C1834   1.405       .  A
C1833      C1838   1.400       .  A
C1833      H1839   1.082       .  S
C1834      C1835   1.406       .  A
C1835      C1836   1.399       .  A
C1835      H1840   1.082       .  S
C1836      C1837   1.406       .  A
C1836      H1841   1.082       .  S
C1837      C1838   1.407       .  A
C1838      H1842   1.081       .  S
C1843      C1844   1.406       .  A
C1843      C1848   1.397   1_545  A
C1843      H1849   1.081       .  S
C1844      C1845   1.408       .  A
C1845      C1846   1.401   1_545  A
C1845      H1850   1.081       .  S
C1846      C1847   1.406       .  A
C1846      H1851   1.082       .  S
C1847      C1848   1.405       .  A
C1848      H1852   1.081       .  S
C1853      C1854   1.403       .  A
C1853      C1858   1.398       .  A
C1853      H1859   1.083       .  S
C1854      C1855   1.403       .  A
C1855      C1856   1.398       .  A
C1855      H1860   1.083       .  S
C1856      C1857   1.403       .  A
C1856      H1861   1.083       .  S
C1857      C1858   1.404       .  A
C1858      H1862   1.083       .  S
C1863      C1864   1.404       .  A
C1863      C1868   1.398       .  A
C1863      H1869   1.083       .  S
C1864      C1865   1.405       .  A
C1865      C1866   1.400       .  A
C1865      H1870   1.082       .  S
C1866      C1867   1.405       .  A
C1866      H1871   1.082       .  S
C1867      C1868   1.406       .  A
C1868      H1872   1.082       .  S
