geometry optimzed in LAMMPS
_audit_creation_date              2020-12-01 
_audit_creation_method            'lammps2cif' 
_symmetry_space_group_name_H-M    'P1' 
_symmetry_Int_Tables_number       1 
_symmetry_cell_setting            triclinic 
loop_ 
_symmetry_equiv_pos_as_xyz 
  x,y,z 
_cell_length_a                    47.45763929 
_cell_length_b                    47.76102487297498 
_cell_length_c                    47.54082601489755 
_cell_angle_alpha                 89.72662604271179 
_cell_angle_beta                  90.27732061242371 
_cell_angle_gamma                 89.32374319061611 
loop_ 
_atom_site_label 
_atom_site_type_symbol 
_atom_site_fract_x 
_atom_site_fract_y 
_atom_site_fract_z 
_atom_site_charge 
C1          C  0.10325331  0.84665177  0.50573538     0.01900
C2          C  0.11704594  0.85685972  0.48165562     0.01900
C3          C  0.13710842  0.87846031  0.48409697     0.01900
C4          C  0.14408205  0.88862189  0.51110082     0.01900
C5          C  0.13632117  0.87243875  0.53483690     0.01900
C6          C  0.11529344  0.85168499  0.53238662     0.01900
C7          C  0.15115964  0.09638097  0.49694355     0.01900
C8          C  0.14170568  0.10931830  0.52198675     0.01900
C9          C  0.11954412  0.12944719  0.52034296     0.01900
C10         C  0.10798690  0.13658186  0.49369356     0.01900
C11         C  0.12413546  0.13115418  0.46927518     0.01900
C12         C  0.14619309  0.11051844  0.47086937     0.01900
C13         C  0.89562458  0.13924278  0.50229845     0.01900
C14         C  0.88253076  0.13114659  0.47696919     0.01900
C15         C  0.86000935  0.11192404  0.47751965     0.01900
C16         C  0.85079610  0.10160323  0.50390786     0.01900
C17         C  0.85826114  0.11639402  0.52867639     0.01900
C18         C  0.88112381  0.13521239  0.52779100     0.01900
C19         C  0.89312529  0.84716135  0.50493696     0.01900
C20         C  0.87726695  0.85365622  0.52929461     0.01900
C21         C  0.85867530  0.87726014  0.52838451     0.01900
C22         C  0.85467654  0.89167608  0.50243581     0.01900
C23         C  0.86239977  0.87806040  0.47711599     0.01900
C24         C  0.88244034  0.85574186  0.47831283     0.01900
C25         C  0.49822436  0.15198877  0.10237330     0.01900
C26         C  0.52330767  0.14385803  0.11653651     0.01900
C27         C  0.52299712  0.12206937  0.13678009     0.01900
C28         C  0.49657275  0.11079069  0.14446410     0.01900
C29         C  0.47135877  0.12527257  0.13647990     0.01900
C30         C  0.47195697  0.14536205  0.11441025     0.01900
C31         C  0.49453918  0.15869329  0.89316865     0.01900
C32         C  0.52132382  0.15261145  0.88131030     0.01900
C33         C  0.52288028  0.13306402  0.85902934     0.01900
C34         C  0.49851694  0.11823996  0.85112220     0.01900
C35         C  0.47198263  0.13054095  0.85666971     0.01900
C36         C  0.47003861  0.15147814  0.87763838     0.01900
C37         C  0.49771039  0.90068939  0.14768958     0.01900
C38         C  0.47172440  0.88914314  0.13924880     0.01900
C39         C  0.47140012  0.86965108  0.11678841     0.01900
C40         C  0.49702970  0.86198503  0.10365884     0.01900
C41         C  0.52268299  0.86724898  0.11770743     0.01900
C42         C  0.52293543  0.88665909  0.14011592     0.01900
C43         C  0.49881804  0.90724432  0.84831293     0.01900
C44         C  0.52370134  0.89489488  0.85925222     0.01900
C45         C  0.52161255  0.87627914  0.88255459     0.01900
C46         C  0.49433711  0.86845226  0.89231111     0.01900
C47         C  0.47058521  0.87322754  0.87430893     0.01900
C48         C  0.47284794  0.89332653  0.85216815     0.01900
C49         C  0.10659473  0.49962068  0.85795009     0.01900
C50         C  0.11842620  0.47280055  0.86360854     0.01900
C51         C  0.14033833  0.47006200  0.88400817     0.01900
C52         C  0.14914025  0.49442243  0.89861686     0.01900
C53         C  0.14338535  0.52128478  0.88656237     0.01900
C54         C  0.12225653  0.52356945  0.86536737     0.01900
C55         C  0.14503912  0.50269760  0.10748096     0.01900
C56         C  0.13955732  0.52707016  0.12354818     0.01900
C57         C  0.11809818  0.52645016  0.14425568     0.01900
C58         C  0.10283037  0.50147191  0.14861930     0.01900
C59         C  0.11400711  0.47590409  0.13837853     0.01900
C60         C  0.13458527  0.47659851  0.11691134     0.01900
C61         C  0.89274714  0.50599324  0.15181503     0.01900
C62         C  0.88395640  0.47915952  0.14297473     0.01900
C63         C  0.86304440  0.47778367  0.12159885     0.01900
C64         C  0.85297211  0.50253914  0.10828109     0.01900
C65         C  0.85594965  0.52812307  0.12248558     0.01900
C66         C  0.87559943  0.52956998  0.14497655     0.01900
C67         C  0.89323521  0.50164296  0.85397750     0.01900
C68         C  0.87960619  0.47657418  0.86164794     0.01900
C69         C  0.85939813  0.47738386  0.88348428     0.01900
C70         C  0.85179441  0.50338626  0.89565646     0.01900
C71         C  0.85766762  0.52836595  0.88071617     0.01900
C72         C  0.87979810  0.52763773  0.86050159     0.01900
O73         O  0.20281946  0.97135776  0.74732465    -0.80500
O74         O  0.29168653  0.03308091  0.80187904    -0.80500
O75         O  0.24523918  0.97188420  0.79713452    -0.80500
O76         O  0.20097872  0.03541204  0.76946224    -0.80500
O77         O  0.29112986  0.97768681  0.79866751    -0.80600
O78         O  0.19613381  0.02476579  0.72566373    -0.80500
O79         O  0.24564059  0.03859082  0.80533912    -0.80500
O80         O  0.22925677  0.93404237  0.75792396    -0.80600
C81         C  0.20523239  0.94524727  0.75504774     1.09200
C82         C  0.26986742  0.03833789  0.81643876     1.09100
C83         C  0.26848076  0.96928783  0.81019945     1.09200
C84         C  0.18566125  0.03474019  0.74775784     1.09100
O85         O  0.24964754  0.02584631  0.70056689    -0.80500
O86         O  0.30587737  0.98107470  0.73819682    -0.80600
O87         O  0.24808022  0.96045413  0.71223110    -0.80500
O88         O  0.27812133  0.06879390  0.76449484    -0.80500
O89         O  0.30334814  0.03798724  0.74203052    -0.80600
O90         O  0.21228509  0.98394484  0.69288737    -0.80500
O91         O  0.23436993  0.06197828  0.72526056    -0.80500
O92         O  0.28261606  0.94771187  0.75726527    -0.80600
Co93       Co  0.22944913  0.99893413  0.72461317     1.51500
Co94       Co  0.29615025  0.00753946  0.76855034     1.51700
Co95       Co  0.24607431  0.96899732  0.75576833     1.51600
Co96       Co  0.24036916  0.04873272  0.76563092     1.51500
O97         O  0.25529592  0.00968363  0.75570549    -1.42400
C98         C  0.24076265  0.05099276  0.70157162     1.09100
C99         C  0.30506047  0.95590823  0.74599730     1.09200
C100        C  0.22979135  0.96394174  0.69210813     1.09100
C101        C  0.30146647  0.06166125  0.75328508     1.09100
O102        O  0.00689160  0.17544072  0.72528358    -0.80500
O103        O  0.00033810  0.25929440  0.82141763    -0.80500
O104        O  0.07601613  0.23952278  0.76483525    -0.80500
O105        O  0.92881081  0.22586276  0.75546137    -0.80500
O106        O  0.03778597  0.22872728  0.79033561    -0.80600
O107        O  0.96885078  0.20099398  0.75948654    -0.80500
O108        O  0.96484495  0.24261619  0.79559813    -0.80500
O109        O  0.04096656  0.20177317  0.74334602    -0.80600
C110        C  0.03123620  0.17749921  0.73620547     1.09200
C111        C  0.97624488  0.24836004  0.81974841     1.09100
C112        C  0.06520212  0.22919911  0.78711444     1.09200
C113        C  0.94131883  0.20217312  0.75845783     1.09100
O114        O  0.96817892  0.21139174  0.70129909    -0.80500
O115        O  0.03650001  0.28731363  0.79001153    -0.80600
O116        O  0.05699197  0.24597469  0.70797881    -0.80500
O117        O  0.94532708  0.28374615  0.75727557    -0.80500
O118        O  0.98294886  0.29497925  0.78113162    -0.80600
O119        O  0.02108074  0.22080462  0.69495295    -0.80500
O120        O  0.95204573  0.25269515  0.71095598    -0.80500
O121        O  0.04956459  0.28747436  0.74683381    -0.80600
Co122      Co  0.99814518  0.21380500  0.72968678     1.51500
Co123      Co  0.00704955  0.25983920  0.78279604     1.51700
Co124      Co  0.04168291  0.24598164  0.74648573     1.51600
Co125      Co  0.96220728  0.24640002  0.75135450     1.51500
O126        O  0.00155157  0.25440849  0.74114914    -1.42400
C127        C  0.95275692  0.23188601  0.69484880     1.09100
C128        C  0.05000562  0.29879975  0.77076444     1.09200
C129        C  0.04442545  0.23204936  0.68934857     1.09100
C130        C  0.95866530  0.30133953  0.77168338     1.09100
O131        O  0.01278652  0.82050120  0.27470782    -0.80500
O132        O  0.99255389  0.71930382  0.18441455    -0.80500
O133        O  0.07243094  0.75754025  0.22730061    -0.80500
O134        O  0.93258982  0.77857055  0.23702597    -0.80500
O135        O  0.03252086  0.75545318  0.20213506    -0.80600
O136        O  0.97404424  0.80013077  0.23830266    -0.80500
O137        O  0.97305603  0.75821390  0.20202409    -0.80500
O138        O  0.03259542  0.79647146  0.23947219    -0.80600
C139        C  0.02840298  0.81975396  0.25303342     1.09200
C140        C  0.97653852  0.74061582  0.18142548     1.09100
C141        C  0.05975009  0.75880731  0.20374479     1.09200
C142        C  0.94689347  0.80071565  0.23402187     1.09100
O143        O  0.96981572  0.78876931  0.29755927    -0.80500
O144        O  0.03262504  0.69881460  0.22070106    -0.80600
O145        O  0.06037107  0.76420512  0.28342810    -0.80500
O146        O  0.94201703  0.72128263  0.23749631    -0.80500
O147        O  0.98044352  0.69688962  0.23470888    -0.80600
O148        O  0.02116179  0.77280852  0.30457321    -0.80500
O149        O  0.94907541  0.75077255  0.28453392    -0.80500
O150        O  0.05306146  0.71464137  0.25814176    -0.80600
Co151      Co  0.00028331  0.78362885  0.27015269     1.51500
Co152      Co  0.00364475  0.72812765  0.22102114     1.51700
Co153      Co  0.04002191  0.75373245  0.24869190     1.51600
Co154      Co  0.96367149  0.75528053  0.24530374     1.51500
O155        O  0.00135147  0.74355582  0.25949325    -1.42400
C156        C  0.95210612  0.77006654  0.30226161     1.09100
C157        C  0.05028382  0.69555822  0.24009111     1.09200
C158        C  0.04745600  0.76983823  0.30569881     1.09100
C159        C  0.95401932  0.69787502  0.23518715     1.09100
O160        O  0.30164499  0.78464074  0.01866395    -0.80500
O161        O  0.21316999  0.71126952  0.96579389    -0.80500
O162        O  0.25731193  0.70011476  0.03137174    -0.80500
O163        O  0.28320734  0.75275158  0.92491246    -0.80500
O164        O  0.21162507  0.70572670  0.02139507    -0.80600
O165        O  0.30137382  0.76466901  0.96605024    -0.80500
O166        O  0.25917882  0.70868180  0.95767517    -0.80500
O167        O  0.30230266  0.74008877  0.02935321    -0.80600
C168        C  0.31426355  0.76372677  0.02920653     1.09200
C169        C  0.23453426  0.69803133  0.95634502     1.09100
C170        C  0.23227657  0.69068549  0.03043022     1.09200
C171        C  0.30382739  0.76245526  0.93904131     1.09100
O172        O  0.28504173  0.81825456  0.97762894    -0.80500
O173        O  0.19900322  0.76540077  0.02707429    -0.80600
O174        O  0.26255446  0.78046849  0.05281829    -0.80500
O175        O  0.22482872  0.75235605  0.93550398    -0.80500
O176        O  0.20101922  0.77097595  0.96971810    -0.80600
O177        O  0.24545118  0.80421277  0.01622139    -0.80500
O178        O  0.25590352  0.79486673  0.95052467    -0.80500
O179        O  0.22334183  0.74086522  0.05787284    -0.80600
Co180      Co  0.27056770  0.78389009  0.99078157     1.51500
Co181      Co  0.20816983  0.73972969  0.99615861     1.51700
Co182      Co  0.26142069  0.74046120  0.03971369     1.51600
Co183      Co  0.26044758  0.75084755  0.95810651     1.51500
O184        O  0.24885049  0.74980936  0.99906860    -1.42400
C185        C  0.26903111  0.81780693  0.95643498     1.09100
C186        C  0.20172335  0.75538559  0.05148421     1.09200
C187        C  0.25136984  0.80254386  0.04217946     1.09100
C188        C  0.20283034  0.76498681  0.94398206     1.09100
O189        O  0.02067398  0.22626646  0.30997058    -0.80500
O190        O  0.98518235  0.28879045  0.21536230    -0.80500
O191        O  0.04524460  0.28798642  0.24511754    -0.80500
O192        O  0.95815553  0.24731196  0.29404718    -0.80500
O193        O  0.03459866  0.27353401  0.20252265    -0.80600
O194        O  0.97410505  0.20385889  0.29496042    -0.80500
O195        O  0.96027045  0.29105810  0.25328032    -0.80500
O196        O  0.04466167  0.26320719  0.29917006    -0.80600
C197        C  0.03658485  0.24582469  0.31742120     1.09200
C198        C  0.96944223  0.30276574  0.23133095     1.09100
C199        C  0.04440284  0.29221772  0.21870627     1.09200
C200        C  0.95901923  0.22313291  0.30536137     1.09100
O201        O  0.99341324  0.18923126  0.24095853    -0.80500
O202        O  0.02150966  0.21459992  0.20638514    -0.80600
O203        O  0.05651280  0.20838304  0.27424518    -0.80500
O204        O  0.95295694  0.24845127  0.20810754    -0.80500
O205        O  0.98774626  0.24938047  0.17632923    -0.80600
O206        O  0.02446720  0.17663831  0.28689576    -0.80500
O207        O  0.95175984  0.20832956  0.24803872    -0.80500
O208        O  0.06001118  0.23304101  0.22324618    -0.80600
Co209      Co  0.00882845  0.20994203  0.27297779     1.51500
Co210      Co  0.00145911  0.25003659  0.21342241     1.51700
Co211      Co  0.04778832  0.24900843  0.26014740     1.51600
Co212      Co  0.95957399  0.24927916  0.25196909     1.51500
O213        O  0.00391563  0.24599287  0.25417456    -1.42400
C214        C  0.96692206  0.18799753  0.23954699     1.09100
C215        C  0.04798399  0.21538575  0.20754231     1.09200
C216        C  0.04993552  0.18356093  0.28315922     1.09100
C217        C  0.96170280  0.24767642  0.18218265     1.09100
O218        O  0.19883391  0.95759363  0.28792469    -0.80500
O219        O  0.29842220  0.01974850  0.21103311    -0.80500
O220        O  0.28620275  0.93664339  0.25172543    -0.80500
O221        O  0.26169204  0.01772971  0.29906142    -0.80500
O222        O  0.30037374  0.97977784  0.24818715    -0.80600
O223        O  0.21594710  0.00901808  0.30044429    -0.80500
O224        O  0.29845269  0.03462076  0.25437756    -0.80500
O225        O  0.24143627  0.93904185  0.29012063    -0.80600
C226        C  0.21729226  0.94280369  0.30072691     1.09200
C227        C  0.30842904  0.03569190  0.22972261     1.09100
C228        C  0.30604688  0.95415644  0.25106767     1.09200
C229        C  0.23893169  0.01572639  0.31264629     1.09100
O230        O  0.20089068  0.02787322  0.24369881    -0.80500
O231        O  0.28318527  0.95855148  0.19489006    -0.80600
O232        O  0.20242982  0.93305278  0.24302362    -0.80500
O233        O  0.24951822  0.04266713  0.22158531    -0.80500
O234        O  0.24583313  0.00673903  0.19354464    -0.80600
O235        O  0.18637751  0.97432128  0.23032949    -0.80500
O236        O  0.23157445  0.05112287  0.26798981    -0.80500
O237        O  0.24480767  0.93680009  0.20674950    -0.80600
Co238      Co  0.20319186  0.99184815  0.26377435     1.51500
Co239      Co  0.27199030  0.98850300  0.21939090     1.51700
Co240      Co  0.24423530  0.93974095  0.24864861     1.51600
Co241      Co  0.25884250  0.02141813  0.25814572     1.51500
O242        O  0.24306672  0.98312345  0.24911000    -1.42400
C243        C  0.20733103  0.04962504  0.25718701     1.09100
C244        C  0.26423290  0.94164993  0.18934552     1.09200
C245        C  0.18325141  0.94819865  0.23161972     1.09100
C246        C  0.24285405  0.03255358  0.19765606     1.09100
O247        O  0.23169338  0.18261984  0.02866937    -0.80500
O248        O  0.18408161  0.21065934  0.97522909    -0.80500
O249        O  0.19888243  0.24411481  0.06359081    -0.80500
O250        O  0.24508644  0.19095697  0.96401403    -0.80500
O251        O  0.17860765  0.21686529  0.03262856    -0.80600
O252        O  0.27596347  0.17196521  0.99387147    -0.80500
O253        O  0.21079248  0.23033924  0.94382396    -0.80500
O254        O  0.24312799  0.20954743  0.06446701    -0.80600
C255        C  0.23455795  0.18609304  0.05492446     1.09200
C256        C  0.19032601  0.21472443  0.94974342     1.09100
C257        C  0.18144263  0.22501297  0.05772251     1.09200
C258        C  0.26088070  0.16998842  0.97207852     1.09100
O259        O  0.28609645  0.22537253  0.97904231    -0.80500
O260        O  0.18505569  0.27694643  0.02577941    -0.80600
O261        O  0.27900594  0.25334899  0.04018628    -0.80500
O262        O  0.23837720  0.27680754  0.96811888    -0.80500
O263        O  0.19207447  0.27118441  0.97034604    -0.80600
O264        O  0.28463422  0.20848880  0.03378913    -0.80500
O265        O  0.26699903  0.23573163  0.93758973    -0.80500
O266        O  0.22922510  0.28760311  0.03611310    -0.80600
Co267      Co  0.25592827  0.20454866  0.00370627     1.51500
Co268      Co  0.18719353  0.24270845  0.00143437     1.51700
Co269      Co  0.23777167  0.24860550  0.04821286     1.51600
Co270      Co  0.24362572  0.23527879  0.96945731     1.51500
O271        O  0.22867420  0.23579642  0.00833423    -1.42400
C272        C  0.28862073  0.22930058  0.95211203     1.09100
C273        C  0.20337015  0.29472887  0.03349076     1.09200
C274        C  0.29409241  0.23135804  0.04260757     1.09100
C275        C  0.21333485  0.28587632  0.96360567     1.09100
O276        O  0.76974564  0.02439940  0.29549175    -0.80500
O277        O  0.71748778  0.97135450  0.20149140    -0.80500
O278        O  0.72578251  0.05843748  0.23356969    -0.80500
O279        O  0.74974358  0.96379262  0.29361358    -0.80500
O280        O  0.70972115  0.02219740  0.21175413    -0.80600
O281        O  0.79348056  0.97853692  0.29559329    -0.80500
O282        O  0.71128789  0.96148374  0.24655035    -0.80500
O283        O  0.76884958  0.06278841  0.27298805    -0.80600
C284        C  0.76929542  0.05029738  0.29628445     1.09200
C285        C  0.70252161  0.96138147  0.22120090     1.09100
C286        C  0.70567600  0.04622444  0.22147707     1.09200
C287        C  0.77283633  0.96634785  0.30708819     1.09100
O288        O  0.81290769  0.98390416  0.23772653    -0.80500
O289        O  0.74102755  0.01127846  0.16662510    -0.80600
O290        O  0.80920883  0.03945086  0.23409228    -0.80500
O291        O  0.75811656  0.94265702  0.21314753    -0.80500
O292        O  0.77841158  0.97844177  0.19371347    -0.80600
O293        O  0.82417286  0.02418172  0.27598838    -0.80500
O294        O  0.79375835  0.94666628  0.25599356    -0.80500
O295        O  0.76614673  0.04234284  0.19068832    -0.80600
Co296      Co  0.79031711  0.00663112  0.26456109     1.51500
Co297      Co  0.74559186  0.00191794  0.20496320     1.51700
Co298      Co  0.76597330  0.04472516  0.23443611     1.51600
Co299      Co  0.75273023  0.95719350  0.25227668     1.51500
O300        O  0.75542895  0.00045546  0.24496520    -1.42400
C301        C  0.81440443  0.95822958  0.24398063     1.09100
C302        C  0.75667157  0.03258807  0.16710469     1.09200
C303        C  0.82815620  0.03860521  0.25383177     1.09100
C304        C  0.77471929  0.95230994  0.19485235     1.09100
O305        O  0.70377821  0.21606795  0.02646435    -0.80500
O306        O  0.77076247  0.30318571  0.97899747    -0.80500
O307        O  0.74928461  0.29837050  0.04243403    -0.80500
O308        O  0.72129057  0.24277855  0.94025607    -0.80500
O309        O  0.79287274  0.29613514  0.02682583    -0.80600
O310        O  0.69850822  0.23866541  0.97862891    -0.80500
O311        O  0.76324947  0.28127226  0.94050016    -0.80500
O312        O  0.70539951  0.25910305  0.04253862    -0.80600
C313        C  0.69234563  0.23633417  0.03932994     1.09200
C314        C  0.76707466  0.30393323  0.95312004     1.09100
C315        C  0.77328834  0.30933417  0.03927184     1.09200
C316        C  0.69801802  0.24105746  0.95255522     1.09100
O317        O  0.71918596  0.18552197  0.98035932    -0.80500
O318        O  0.80567907  0.23769258  0.01657964    -0.80600
O319        O  0.74668988  0.21604623  0.05545619    -0.80500
O320        O  0.80345000  0.24014612  0.96149478    -0.80500
O321        O  0.82241342  0.27814660  0.97985575    -0.80600
O322        O  0.76175085  0.19892867  0.01598968    -0.80500
O323        O  0.75942548  0.20000145  0.96200090    -0.80500
O324        O  0.78794934  0.25343021  0.05584641    -0.80600
Co325      Co  0.73143880  0.21981544  0.99559756     1.51500
Co326      Co  0.78694192  0.26914493  0.99588159     1.51700
Co327      Co  0.74712661  0.25701140  0.04560250     1.51600
Co328      Co  0.76027239  0.24281252  0.95713781     1.51500
O329        O  0.74960375  0.25485038  0.00157450    -1.42400
C330        C  0.74013781  0.18126403  0.96448855     1.09100
C331        C  0.80719933  0.24026919  0.04294608     1.09200
C332        C  0.75823872  0.19615169  0.04204918     1.09100
C333        C  0.82356734  0.25813110  0.96241887     1.09100
O334        O  0.03052649  0.78223720  0.70927385    -0.80500
O335        O  0.96798435  0.70166071  0.75166907    -0.80500
O336        O  0.07002602  0.71740442  0.75490789    -0.80500
O337        O  0.96415855  0.74153699  0.71160871    -0.80500
O338        O  0.02886347  0.69698353  0.75357030    -0.80600
O339        O  0.97443142  0.78607607  0.70800679    -0.80500
O340        O  0.92691459  0.72328435  0.75315155    -0.80500
O341        O  0.03326815  0.73650307  0.71317594    -0.80600
C342        C  0.03729998  0.75856793  0.69907695     1.09200
C343        C  0.94140101  0.70079592  0.75686968     1.09100
C344        C  0.05554798  0.69547114  0.75891902     1.09200
C345        C  0.96486880  0.76396476  0.69719113     1.09100
O346        O  0.97282437  0.80835191  0.76377154    -0.80500
O347        O  0.02627414  0.71715019  0.81094460    -0.80600
O348        O  0.06258791  0.77612229  0.74956778    -0.80500
O349        O  0.95091070  0.75757044  0.79221723    -0.80500
O350        O  0.97047992  0.72059762  0.80974136    -0.80600
O351        O  0.03085789  0.80519122  0.76570344    -0.80500
O352        O  0.93850446  0.78348058  0.74652594    -0.80500
O353        O  0.04637483  0.75283281  0.79287848    -0.80600
Co354      Co  0.00204712  0.79307393  0.73870313     1.51500
Co355      Co  0.99841952  0.71290370  0.77943274     1.51700
Co356      Co  0.03800521  0.74241046  0.75422756     1.51600
Co357      Co  0.95958952  0.74716083  0.75302984     1.51500
O358        O  0.99955125  0.75584234  0.76030472    -1.42400
C359        C  0.94755463  0.80686134  0.75540592     1.09100
C360        C  0.04259042  0.73738589  0.81349556     1.09200
C361        C  0.05628970  0.79981155  0.76003931     1.09100
C362        C  0.95467379  0.74157699  0.81279332     1.09100
O363        O  0.79920210  0.03362571  0.71759756    -0.80500
O364        O  0.71889714  0.98264425  0.80150297    -0.80500
O365        O  0.74872875  0.07433318  0.77739682    -0.80500
O366        O  0.80203883  0.97236607  0.75788935    -0.80500
O367        O  0.73942328  0.03428118  0.79858825    -0.80600
O368        O  0.80349294  0.97713216  0.71223985    -0.80500
O369        O  0.76362202  0.97531037  0.79879544    -0.80500
O370        O  0.79093150  0.03808499  0.76287204    -0.80600
C371        C  0.80684844  0.04200362  0.74192464     1.09200
C372        C  0.74137783  0.97415190  0.81292388     1.09100
C373        C  0.74548002  0.06057053  0.79990424     1.09200
C374        C  0.81505260  0.96927568  0.73510895     1.09100
O375        O  0.74629530  0.97404557  0.69285018    -0.80500
O376        O  0.68577850  0.02370847  0.78413524    -0.80600
O377        O  0.75556371  0.06414020  0.72212475    -0.80500
O378        O  0.72205421  0.94721155  0.76271526    -0.80500
O379        O  0.69689276  0.98270167  0.74623027    -0.80600
O380        O  0.74137164  0.03122894  0.69512112    -0.80500
O381        O  0.76384866  0.94229210  0.72169286    -0.80500
O382        O  0.70622016  0.04880282  0.75086892    -0.80600
Co383      Co  0.77079749  0.00402233  0.70624861     1.51500
Co384      Co  0.71894661  0.00919509  0.76885787     1.51700
Co385      Co  0.74976351  0.04070133  0.75688855     1.51600
Co386      Co  0.76239837  0.96158655  0.75969072     1.51500
O387        O  0.75228831  0.00025649  0.74486538    -1.42400
C388        C  0.75556213  0.94949330  0.69708641     1.09100
C389        C  0.68508928  0.04440813  0.76757616     1.09200
C390        C  0.74924845  0.05609134  0.69764876     1.09100
C391        C  0.69811696  0.95767308  0.75537100     1.09100
O392        O  0.78049633  0.80614520  0.02568913    -0.80500
O393        O  0.80954362  0.76392865  0.98844810    -0.80500
O394        O  0.79895516  0.75102420  0.04973406    -0.80500
O395        O  0.74794481  0.80417006  0.95509365    -0.80500
O396        O  0.82040040  0.72017739  0.02283709    -0.80600
O397        O  0.74452040  0.83534661  0.99090804    -0.80500
O398        O  0.78656966  0.75833945  0.94888071    -0.80500
O399        O  0.76263915  0.78726569  0.06368910    -0.80600
C400        C  0.77752963  0.80608064  0.05223212     1.09200
C401        C  0.80930554  0.76238614  0.96198209     1.09100
C402        C  0.82127847  0.73696512  0.04315319     1.09200
C403        C  0.74713549  0.83003628  0.96463990     1.09100
O404        O  0.70672668  0.79769883  0.98694904    -0.80500
O405        O  0.76555362  0.70766918  0.03556513    -0.80600
O406        O  0.71333988  0.75780936  0.04657560    -0.80500
O407        O  0.74563197  0.71728219  0.95761766    -0.80500
O408        O  0.78600215  0.70955041  0.97985575    -0.80600
O409        O  0.72003617  0.80289797  0.03705036    -0.80500
O410        O  0.70454205  0.75989041  0.96216482    -0.80500
O411        O  0.75636042  0.72854228  0.07684362    -0.80600
Co412      Co  0.74566169  0.79877126  0.00375495     1.51500
Co413      Co  0.78614265  0.73742252  0.01061924     1.51700
Co414      Co  0.75486492  0.75110192  0.04407795     1.51600
Co415      Co  0.74634275  0.75955152  0.95948823     1.51500
O416        O  0.75178777  0.75946705  0.00302704    -1.42400
C417        C  0.69305855  0.78199455  0.97091818     1.09100
C418        C  0.76201124  0.70638132  0.06274616     1.09200
C419        C  0.70490570  0.78337224  0.04739672     1.09100
C420        C  0.76696964  0.70162067  0.96307563     1.09100
C421        C  0.74716444  0.85388331  0.94467633    -0.20300
C422        C  0.75682110  0.85094222  0.91678843     0.36000
C423        C  0.75489418  0.87388621  0.89838869    -0.26200
C424        C  0.74417892  0.89979879  0.90736394     0.02400
C425        C  0.73475016  0.90298435  0.93514469     0.27200
C426        C  0.73625502  0.87995341  0.95354408    -0.25400
N427        N  0.76882636  0.82489768  0.90726744    -0.82700
H428        H  0.76204906  0.87169353  0.87688406     0.13000
C429        C  0.74360379  0.92328131  0.88710740     0.02400
N430        N  0.72385247  0.92954411  0.94451468    -0.81300
H431        H  0.72860685  0.88237358  0.97483997     0.17800
C432        C  0.71770121  0.93427776  0.87773417    -0.26200
C433        C  0.71643182  0.95266500  0.85464874     0.35900
C434        C  0.74157343  0.96017015  0.84079264    -0.20200
C435        C  0.76756809  0.95094978  0.85195150    -0.25400
C436        C  0.76880953  0.93252752  0.87491919     0.27200
H437        H  0.69830818  0.92733978  0.88733812     0.13000
N438        N  0.68953731  0.96251426  0.84466845    -0.82700
H439        H  0.78702701  0.95699550  0.84190242     0.17900
N440        N  0.79550366  0.92217366  0.88526406    -0.81300
H441        H  0.67955999  0.97313277  0.86109755     0.33500
H442        H  0.67736100  0.94514272  0.83953702     0.38000
H443        H  0.81207670  0.93067969  0.87374466     0.33500
H444        H  0.79781894  0.92919718  0.90593282     0.30100
H445        H  0.71767997  0.92831807  0.96556495     0.33500
H446        H  0.74029626  0.94389735  0.94366550     0.30100
H447        H  0.78755287  0.82144677  0.91851188     0.38000
H448        H  0.77438994  0.82622723  0.88605323     0.33500
C449        C  0.83561951  0.76050611  0.94556738    -0.20300
C450        C  0.85801498  0.77946802  0.94804633     0.36000
C451        C  0.88101764  0.77724125  0.92932900    -0.26200
C452        C  0.88191883  0.75618051  0.90868466     0.02400
C453        C  0.86000261  0.73659696  0.90721857     0.27200
C454        C  0.83725996  0.73894913  0.92565468    -0.25400
N455        N  0.85699991  0.80113177  0.96888696    -0.82700
H456        H  0.89798172  0.79218058  0.93043940     0.13000
C457        C  0.90455239  0.75538136  0.88719665     0.02400
N458        N  0.86057031  0.71477200  0.88645019    -0.81300
H459        H  0.82028999  0.72401218  0.92412610     0.17800
C460        C  0.92193974  0.73151380  0.88534049    -0.26200
C461        C  0.93921161  0.72698049  0.86185393     0.35900
C462        C  0.93951802  0.74687718  0.83972217    -0.20200
C463        C  0.92337093  0.77164027  0.84256427    -0.25400
C464        C  0.90571152  0.77595630  0.86589420     0.27200
H465        H  0.92096840  0.71555444  0.90158509     0.13000
N466        N  0.95541459  0.70155737  0.86016800    -0.82700
H467        H  0.92356674  0.78724271  0.82595130     0.17900
N468        N  0.88801377  0.80054765  0.86740702    -0.81300
H469        H  0.94156334  0.68472174  0.86127412     0.33500
H470        H  0.96881353  0.70049402  0.87767251     0.38000
H471        H  0.89147672  0.81369899  0.85015221     0.33500
H472        H  0.86707208  0.79411884  0.86596277     0.30100
H473        H  0.84304105  0.70185755  0.88844790     0.33500
H474        H  0.85900261  0.72427507  0.86663572     0.30100
H475        H  0.84001195  0.81441633  0.96390433     0.38000
H476        H  0.87515287  0.81328578  0.96791967     0.33500
C477        C  0.93012864  0.83279781  0.75276403    -0.20300
C478        C  0.94053366  0.85921656  0.76101699     0.36000
C479        C  0.92464127  0.88351564  0.75556562    -0.26200
C480        C  0.89833624  0.88218730  0.74229769     0.02400
C481        C  0.88768979  0.85603908  0.73403423     0.27200
C482        C  0.90375530  0.83162061  0.73920342    -0.25400
N483        N  0.96724223  0.86167663  0.77490886    -0.82700
H484        H  0.93272454  0.90360209  0.76213544     0.13000
C485        C  0.88092056  0.90796276  0.73987138     0.02400
N486        N  0.86048003  0.85438779  0.72076048    -0.81300
H487        H  0.89565686  0.81162876  0.73243118     0.17800
C488        C  0.87240859  0.91797934  0.71332903    -0.26200
C489        C  0.85289930  0.94029522  0.71080650     0.35900
C490        C  0.84147235  0.95233731  0.73547074    -0.20200
C491        C  0.85229922  0.94392060  0.76182310    -0.25400
C492        C  0.87147913  0.92159102  0.76430730     0.27200
H493        H  0.88031465  0.90773212  0.69461869     0.13000
N494        N  0.84382615  0.94978442  0.68345114    -0.82700
H495        H  0.84424953  0.95342446  0.78085593     0.17900
N496        N  0.88023238  0.91168668  0.79165217    -0.81300
H497        H  0.85051632  0.97043630  0.68106098     0.33500
H498        H  0.85371668  0.93816472  0.66765356     0.38000
H499        H  0.87139853  0.92404886  0.80749548     0.33500
H500        H  0.87221956  0.89155342  0.79435236     0.30100
H501        H  0.85580895  0.83365335  0.71576795     0.33500
H502        H  0.84541077  0.86095113  0.73536489     0.30100
H503        H  0.97991369  0.87473282  0.76275127     0.38000
H504        H  0.96394791  0.87134791  0.79432129     0.33500
C505        C  0.74368219  0.15483498  0.94916362    -0.20300
C506        C  0.72033427  0.13887620  0.94077759     0.36000
C507        C  0.72388932  0.11830469  0.92020506    -0.26200
C508        C  0.75025953  0.11387557  0.90776888     0.02400
C509        C  0.77407042  0.12786233  0.91796792     0.27200
C510        C  0.77059685  0.14808294  0.93883123    -0.25400
N511        N  0.69271008  0.14491793  0.95133391    -0.82700
H512        H  0.70558373  0.10746957  0.91223966     0.13000
C513        C  0.75156177  0.09900475  0.88087298     0.02400
N514        N  0.80128151  0.12268607  0.90574661    -0.81300
H515        H  0.78874140  0.15985089  0.94570374     0.17800
C516        C  0.75739557  0.11464191  0.85666808    -0.26200
C517        C  0.75618993  0.10248221  0.83008402     0.35900
C518        C  0.74901094  0.07398703  0.82758880    -0.20200
C519        C  0.74391868  0.05816974  0.85210226    -0.25400
C520        C  0.74508082  0.07049392  0.87878843     0.27200
H521        H  0.76215271  0.13672394  0.85838507     0.13000
N522        N  0.76181622  0.11937710  0.80581004    -0.82700
H523        H  0.73850918  0.03625827  0.85050387     0.17900
N524        N  0.73938720  0.05440227  0.90370323    -0.81300
H525        H  0.78213626  0.12737896  0.80784228     0.33500
H526        H  0.74754765  0.13623097  0.80558064     0.38000
H527        H  0.73482422  0.03369177  0.89849779     0.33500
H528        H  0.75784584  0.05376865  0.91579855     0.30100
H529        H  0.81655157  0.13515869  0.91524449     0.33500
H530        H  0.80686642  0.10188243  0.91016253     0.30100
H531        H  0.67967004  0.15036475  0.93432557     0.38000
H532        H  0.68491028  0.12663127  0.96044511     0.33500
C533        C  0.76463889  0.16922920  0.05665218    -0.20300
C534        C  0.77348792  0.14483299  0.04218512     0.36000
C535        C  0.77522625  0.11907346  0.05657040    -0.26200
C536        C  0.76849890  0.11734695  0.08514422     0.02400
C537        C  0.76094394  0.14172191  0.09996694     0.27200
C538        C  0.75927945  0.16738702  0.08565641    -0.25400
N539        N  0.78020076  0.14586819  0.01287567    -0.82700
H540        H  0.78133516  0.10030600  0.04530173     0.13000
C541        C  0.76837833  0.09007565  0.09980650     0.02400
N542        N  0.75460757  0.14016711  0.12949796    -0.81300
H543        H  0.75283632  0.18588842  0.09716386     0.17800
C544        C  0.79133382  0.08272568  0.11701242    -0.26200
C545        C  0.78871994  0.06187067  0.13764668     0.35900
C546        C  0.76280196  0.04814239  0.14101885    -0.20200
C547        C  0.74084786  0.05348039  0.12176948    -0.25400
C548        C  0.74338781  0.07459995  0.10134485     0.27200
H549        H  0.81063780  0.09456421  0.11578109     0.13000
N550        N  0.81204288  0.05542310  0.15588770    -0.82700
H551        H  0.72083213  0.04305006  0.12413863     0.17900
N552        N  0.71988601  0.08176835  0.08360535    -0.81300
H553        H  0.82900225  0.04898223  0.14343946     0.33500
H554        H  0.81780875  0.07378400  0.16621519     0.38000
H555        H  0.71435374  0.06391974  0.07229670     0.33500
H556        H  0.70289849  0.08726250  0.09645787     0.30100
H557        H  0.74989105  0.16004751  0.13742999     0.33500
H558        H  0.73636702  0.12831732  0.13177413     0.30100
H559        H  0.76707479  0.13190780  0.00235037     0.38000
H560        H  0.80100163  0.13887166  0.01045886     0.33500
C561        C  0.78769933  0.93283705  0.17424851    -0.20300
C562        C  0.79085901  0.90410225  0.18070799     0.36000
C563        C  0.79674145  0.88490043  0.15931047    -0.26200
C564        C  0.80066603  0.89377544  0.13142684     0.02400
C565        C  0.80111054  0.92290919  0.12562559     0.27200
C566        C  0.79429138  0.94214861  0.14704579    -0.25400
N567        N  0.78748443  0.89418331  0.20897054    -0.82700
H568        H  0.79643748  0.86278927  0.16441110     0.13000
C569        C  0.79964887  0.87250996  0.10841648     0.02400
N570        N  0.80747941  0.93274940  0.09778061    -0.81300
H571        H  0.79273386  0.96428490  0.14210571     0.17800
C572        C  0.78077091  0.87713945  0.08595731    -0.26200
C573        C  0.77499521  0.85612443  0.06642009     0.35900
C574        C  0.78777076  0.82958305  0.06934407    -0.20200
C575        C  0.80733408  0.82489392  0.09111128    -0.25400
C576        C  0.81389337  0.84628682  0.11038176     0.27200
H577        H  0.76900759  0.89666149  0.08440782     0.13000
N578        N  0.75462618  0.86127983  0.04464177    -0.82700
H579        H  0.81708341  0.80440027  0.09336804     0.17900
N580        N  0.83441246  0.84128109  0.13223662    -0.81300
H581        H  0.76142902  0.87827989  0.03262708     0.33500
H582        H  0.73553154  0.86692583  0.05405366     0.38000
H583        H  0.84279319  0.82099057  0.13081140     0.33500
H584        H  0.85107741  0.85500682  0.12889865     0.30100
H585        H  0.80669856  0.95462451  0.09694016     0.33500
H586        H  0.82825974  0.92677728  0.09341335     0.30100
H587        H  0.80618667  0.88402495  0.21508956     0.38000
H588        H  0.77132979  0.87948855  0.20911507     0.33500
C589        C  0.23455786  0.05122183  0.17422199    -0.20300
C590        C  0.24619109  0.04788886  0.14704579     0.36000
C591        C  0.24218467  0.06926671  0.12694103    -0.26200
C592        C  0.22622757  0.09332532  0.13325255     0.02400
C593        C  0.21243136  0.09508746  0.15935276     0.27200
C594        C  0.21740263  0.07450164  0.17984150    -0.25400
N595        N  0.26366013  0.02396103  0.14059923    -0.82700
H596        H  0.25254867  0.06774578  0.10673312     0.13000
C597        C  0.22636410  0.11741940  0.11347319     0.02400
N598        N  0.19365641  0.11799122  0.16524871    -0.81300
H599        H  0.20844971  0.07716065  0.20050481     0.17800
C600        C  0.21901744  0.11363287  0.08514470    -0.26200
C601        C  0.22101382  0.13571859  0.06564574     0.35900
C602        C  0.23002366  0.16238149  0.07470417    -0.20200
C603        C  0.23671102  0.16608670  0.10325239    -0.25400
C604        C  0.23585027  0.14378163  0.12235575     0.27200
H605        H  0.21215289  0.09328672  0.07802036     0.13000
N606        N  0.21431616  0.13070710  0.03670077    -0.82700
H607        H  0.24377679  0.18618600  0.11079167     0.17900
N608        N  0.24605532  0.14765203  0.15047114    -0.81300
H609        H  0.19361217  0.12355830  0.03553543     0.33500
H610        H  0.22765583  0.11476777  0.02941945     0.38000
H611        H  0.26706476  0.15390673  0.14935915     0.33500
H612        H  0.23440634  0.16392650  0.15959140     0.30100
H613        H  0.17384936  0.10974713  0.16968178     0.33500
H614        H  0.20084507  0.12799065  0.18339154     0.30100
H615        H  0.25066573  0.00644397  0.14011634     0.38000
H616        H  0.27210303  0.02581333  0.12040822     0.33500
C617        C  0.06509780  0.19993412  0.18699588    -0.20300
C618        C  0.09275715  0.19116971  0.19376239     0.36000
C619        C  0.11210992  0.18625151  0.17216153    -0.26200
C620        C  0.10431720  0.19090939  0.14402728     0.02400
C621        C  0.07587089  0.19631690  0.13720438     0.27200
C622        C  0.05627606  0.20022364  0.15880180    -0.25400
N623        N  0.10166542  0.18898485  0.22251628    -0.82700
H624        H  0.13392925  0.18166729  0.17746445     0.13000
C625        C  0.12643979  0.19710568  0.12328933     0.02400
N626        N  0.06744112  0.20072769  0.10853662    -0.81300
H627        H  0.03499140  0.20682226  0.15337661     0.17800
C628        C  0.12865398  0.18140751  0.09856513    -0.26200
C629        C  0.14703514  0.18954418  0.07705338     0.35900
C630        C  0.16342091  0.21383019  0.08035528    -0.20200
C631        C  0.16198581  0.22867083  0.10574172    -0.25400
C632        C  0.14343085  0.22084877  0.12703262     0.27200
H633        H  0.11557434  0.16318382  0.09570003     0.13000
N634        N  0.14883393  0.17315133  0.05197507    -0.82700
H635        H  0.17450533  0.24726664  0.10863224     0.17900
N636        N  0.14094186  0.23759997  0.15201217    -0.81300
H637        H  0.15473050  0.15275263  0.05773575     0.33500
H638        H  0.12875368  0.17243807  0.04288155     0.38000
H639        H  0.15512634  0.25418127  0.15158926     0.33500
H640        H  0.12074753  0.24660421  0.15205655     0.30100
H641        H  0.05140581  0.18663217  0.10389868     0.33500
H642        H  0.05908433  0.22101300  0.10667768     0.30100
H643        H  0.10910807  0.16855851  0.22596485     0.38000
H644        H  0.11847794  0.20261115  0.22557363     0.33500
C645        C  0.94097849  0.24368080  0.15948484    -0.20300
C646        C  0.91487694  0.25787228  0.15980609     0.36000
C647        C  0.89452857  0.25179373  0.13940695    -0.26200
C648        C  0.89973517  0.23159438  0.11868001     0.02400
C649        C  0.92595968  0.21747535  0.11805732     0.27200
C650        C  0.94651007  0.22383620  0.13842701    -0.25400
N651        N  0.90921605  0.27887774  0.18050489    -0.82700
H652        H  0.87456726  0.26306128  0.13960683     0.13000
C653        C  0.87763127  0.22674488  0.09727121     0.02400
N654        N  0.93137125  0.19654818  0.09708091    -0.81300
H655        H  0.96652242  0.21266215  0.13844729     0.17800
C656        C  0.88212488  0.23561377  0.06954045    -0.26200
C657        C  0.85957773  0.23780599  0.05042815     0.35900
C658        C  0.83220498  0.23084416  0.05910565    -0.20200
C659        C  0.82824394  0.21965265  0.08613547    -0.25400
C660        C  0.85079399  0.21733648  0.10527678     0.27200
H661        H  0.90275872  0.24283071  0.06331758     0.13000
N662        N  0.86419625  0.24932820  0.02306639    -0.82700
H663        H  0.80721498  0.21409577  0.09278953     0.17900
N664        N  0.84638772  0.20673642  0.13323940    -0.81300
H665        H  0.87918592  0.23672263  0.01300902     0.33500
H666        H  0.87268570  0.26928047  0.02552098     0.38000
H667        H  0.82539663  0.20088647  0.13585833     0.33500
H668        H  0.85859235  0.18848272  0.13548180     0.30100
H669        H  0.95165071  0.18807935  0.09960347     0.33500
H670        H  0.91732704  0.18018427  0.10048748     0.30100
H671        H  0.89117890  0.27310559  0.19154921     0.38000
H672        H  0.90484793  0.29775121  0.17003940     0.33500
C673        C  0.95283613  0.16156897  0.23263971    -0.20300
C674        C  0.96380555  0.13553444  0.24205994     0.36000
C675        C  0.94637047  0.11203778  0.24253728    -0.26200
C676        C  0.91827715  0.11415874  0.23361871     0.02400
C677        C  0.90785505  0.13965114  0.22259047     0.27200
C678        C  0.92525668  0.16305159  0.22194708    -0.25400
N679        N  0.99187140  0.13325329  0.25305170    -0.82700
H680        H  0.95438321  0.09241673  0.25109716     0.13000
C681        C  0.89897013  0.09078420  0.23877426     0.02400
N682        N  0.87904021  0.14228661  0.21374552    -0.81300
H683        H  0.91654631  0.18293536  0.21475793     0.17800
C684        C  0.89130966  0.08451175  0.26653684    -0.26200
C685        C  0.86917155  0.06613435  0.27209670     0.35900
C686        C  0.85472486  0.05364884  0.24949165    -0.20200
C687        C  0.86376538  0.05860604  0.22182787    -0.25400
C688        C  0.88573222  0.07709574  0.21634149     0.27200
H689        H  0.90143763  0.09517991  0.28386827     0.13000
N690        N  0.86028903  0.06170248  0.30051978    -0.82700
H691        H  0.85307484  0.04887676  0.20428221     0.17900
N692        N  0.89406414  0.08259993  0.18795292    -0.81300
H693        H  0.85475964  0.08111628  0.30908877     0.33500
H694        H  0.87744898  0.05365707  0.31195928     0.38000
H695        H  0.90027069  0.06361110  0.17890480     0.33500
H696        H  0.87644344  0.09015885  0.17688264     0.30100
H697        H  0.86938081  0.15786275  0.22585219     0.33500
H698        H  0.87876392  0.14895379  0.19276472     0.30100
H699        H  0.99068215  0.12625852  0.27388515     0.38000
H700        H  0.00270903  0.11804351  0.24147037     0.33500
C701        C  0.07240384  0.16277571  0.28665998    -0.20300
C702        C  0.10038197  0.17119449  0.29105287     0.36000
C703        C  0.12222611  0.15217980  0.28661628    -0.26200
C704        C  0.11647792  0.12478678  0.27837650     0.02400
C705        C  0.08853641  0.11551764  0.27667001     0.27200
C706        C  0.06658455  0.13468276  0.28079327    -0.25400
N707        N  0.10674430  0.19917784  0.29936456    -0.82700
H708        H  0.14380408  0.15912389  0.28870093     0.13000
C709        C  0.14021926  0.10635232  0.27190563     0.02400
N710        N  0.08246501  0.08687780  0.27046660    -0.81300
H711        H  0.04510893  0.12787977  0.27782748     0.17800
C712        C  0.16164045  0.10334038  0.29199020    -0.26200
C713        C  0.18523774  0.08670238  0.28658418     0.35900
C714        C  0.18644606  0.07171797  0.26112787    -0.20200
C715        C  0.16519254  0.07518264  0.24080125    -0.25400
C716        C  0.14251493  0.09319291  0.24563617     0.27200
H717        H  0.15986880  0.11403505  0.31198154     0.13000
N718        N  0.20714124  0.08398164  0.30739802    -0.82700
H719        H  0.16599292  0.06368609  0.22121879     0.17900
N720        N  0.12214211  0.09836520  0.22382291    -0.81300
H721        H  0.20183784  0.09511141  0.32553031     0.33500
H722        H  0.22507441  0.09358148  0.29931833     0.38000
H723        H  0.13265141  0.10664106  0.20644324     0.33500
H724        H  0.11363332  0.07917245  0.21787364     0.30100
H725        H  0.07065804  0.07877023  0.28706111     0.33500
H726        H  0.06992039  0.08645655  0.25233066     0.30100
H727        H  0.11810042  0.19809367  0.31824944     0.38000
H728        H  0.11975755  0.20797405  0.28407878     0.33500
C729        C  0.24950916  0.82769106  0.05941621    -0.20300
C730        C  0.24029698  0.82636321  0.08741818     0.36000
C731        C  0.24257713  0.84995086  0.10436958    -0.26200
C732        C  0.25454187  0.87448978  0.09385243     0.02400
C733        C  0.26372768  0.87610059  0.06594507     0.27200
C734        C  0.26082679  0.85259393  0.04874107    -0.25400
N735        N  0.22897496  0.80106787  0.09875112    -0.82700
H736        H  0.23576000  0.84889967  0.12608769     0.13000
C737        C  0.25850994  0.89754390  0.11330472     0.02400
N738        N  0.27663035  0.90119995  0.05565537    -0.81300
H739        H  0.26872230  0.85315573  0.02745853     0.17800
C740        C  0.28504329  0.90078821  0.12581431    -0.26200
C741        C  0.28774006  0.91679015  0.15011588     0.35900
C742        C  0.26344407  0.92898723  0.16183250    -0.20200
C743        C  0.23755560  0.92803840  0.14772350    -0.25400
C744        C  0.23492237  0.91247215  0.12316991     0.27200
H745        H  0.30315904  0.88932171  0.11788079     0.13000
N746        N  0.31456839  0.91902550  0.16388604    -0.82700
H747        H  0.21924256  0.93857869  0.15645189     0.17900
N748        N  0.20820785  0.91036877  0.10902206    -0.81300
H749        H  0.32868973  0.92794284  0.14970831     0.33500
H750        H  0.32186972  0.89884818  0.16882505     0.38000
H751        H  0.19292683  0.92252698  0.11920631     0.33500
H752        H  0.21052573  0.91897725  0.08891509     0.30100
H753        H  0.28278726  0.89873795  0.03473045     0.33500
H754        H  0.26134517  0.91714097  0.05587453     0.30100
H755        H  0.20875765  0.80555533  0.10625547     0.38000
H756        H  0.24148019  0.79489842  0.11590730     0.33500
C757        C  0.05926285  0.74259582  0.83898813    -0.20300
C758        C  0.06514941  0.77041050  0.84669824     0.36000
C759        C  0.08754862  0.77583091  0.86495733    -0.26200
C760        C  0.10413962  0.75386719  0.87563030     0.02400
C761        C  0.09676163  0.72587079  0.87019954     0.27200
C762        C  0.07427715  0.72041950  0.85170531    -0.25400
N763        N  0.04895862  0.79326666  0.83515294    -0.82700
H764        H  0.09278398  0.79730901  0.86981958     0.13000
C765        C  0.12972786  0.76052350  0.89172539     0.02400
N766        N  0.11271072  0.70328204  0.88281726    -0.81300
H767        H  0.06981064  0.69904897  0.84572092     0.17800
C768        C  0.12716697  0.77143494  0.91881478    -0.26200
C769        C  0.15105886  0.77533623  0.93568436     0.35900
C770        C  0.17806663  0.76827925  0.92513331    -0.20200
C771        C  0.18055396  0.75989625  0.89693403    -0.25400
C772        C  0.15657926  0.75572798  0.88028213     0.27200
H773        H  0.10644330  0.77586671  0.92731192     0.13000
N774        N  0.14754577  0.78540224  0.96380026    -0.82700
H775        H  0.20105748  0.75497279  0.88818894     0.17900
N776        N  0.15946349  0.74611839  0.85192939    -0.81300
H777        H  0.13735409  0.80491021  0.96275192     0.33500
H778        H  0.13443027  0.77158721  0.97455092     0.38000
H779        H  0.17169964  0.76055266  0.84096324     0.33500
H780        H  0.17039517  0.72698925  0.85235177     0.30100
H781        H  0.11057140  0.70492781  0.90462573     0.33500
H782        H  0.10402226  0.68404866  0.87733370     0.30100
H783        H  0.06270417  0.80659210  0.82458052     0.38000
H784        H  0.04007202  0.80442588  0.85183600     0.33500
C785        C  0.84009547  0.94150182  0.23903458    -0.20300
C786        C  0.85164605  0.92515167  0.26111200     0.36000
C787        C  0.87311715  0.90572427  0.25528072    -0.26200
C788        C  0.88287545  0.90200304  0.22779574     0.02400
C789        C  0.87216814  0.91901109  0.20584164     0.27200
C790        C  0.85109034  0.93911217  0.21179067    -0.25400
N791        N  0.84093916  0.92787671  0.28924140    -0.82700
H792        H  0.88144173  0.89247932  0.27201572     0.13000
C793        C  0.90198149  0.87801452  0.22252863     0.02400
N794        N  0.88204233  0.91507086  0.17760496    -0.81300
H795        H  0.84214907  0.95176931  0.19494142     0.17800
C796        C  0.89046262  0.85337409  0.21182590    -0.26200
C797        C  0.90545098  0.82786957  0.21339952     0.35900
C798        C  0.93269227  0.82727987  0.22568816    -0.20200
C799        C  0.94509779  0.85256870  0.23390679    -0.25400
C800        C  0.92982202  0.87789906  0.23280246     0.27200
H801        H  0.86897203  0.85373253  0.20397874     0.13000
N802        N  0.89255672  0.80251678  0.20380505    -0.82700
H803        H  0.96600768  0.85233185  0.24316958     0.17900
N804        N  0.94179469  0.90323050  0.24352405    -0.81300
H805        H  0.90441675  0.79493857  0.18697130     0.33500
H806        H  0.87231986  0.80662802  0.19589727     0.38000
H807        H  0.96234980  0.89954122  0.25077512     0.33500
H808        H  0.94325702  0.91732960  0.22672002     0.30100
H809        H  0.87170193  0.92893730  0.16382738     0.33500
H810        H  0.90339010  0.92022025  0.17729286     0.30100
H811        H  0.84555295  0.94806580  0.29615529     0.38000
H812        H  0.85136206  0.91399928  0.30294423     0.33500
C813        C  0.04205210  0.84554976  0.24300569    -0.20300
C814        C  0.04885308  0.84962074  0.21443578     0.36000
C815        C  0.06791923  0.87062948  0.20687347    -0.26200
C816        C  0.08016653  0.88765785  0.22747617     0.02400
C817        C  0.07136852  0.88518864  0.25571502     0.27200
C818        C  0.05203561  0.86443200  0.26308620    -0.25400
N819        N  0.03683582  0.83217860  0.19318722    -0.82700
H820        H  0.07428761  0.87270310  0.18511097     0.13000
C821        C  0.10514757  0.90478155  0.22064100     0.02400
N822        N  0.08354174  0.90253496  0.27712100    -0.81300
H823        H  0.04665033  0.86150485  0.28502374     0.17800
C824        C  0.10453344  0.93373038  0.22536880    -0.26200
C825        C  0.12954087  0.94904978  0.22693298     0.35900
C826        C  0.15598828  0.93516390  0.22352079    -0.20200
C827        C  0.15613334  0.90666392  0.21626219    -0.25400
C828        C  0.13104730  0.89145899  0.21482198     0.27200
H829        H  0.08463151  0.94410483  0.22986258     0.13000
N830        N  0.12732291  0.97810489  0.23401060    -0.82700
H831        H  0.17599321  0.89567861  0.21323979     0.17900
N832        N  0.13212177  0.86197834  0.20946353    -0.81300
H833        H  0.13804100  0.98144503  0.25294039     0.33500
H834        H  0.13661397  0.98987145  0.21803769     0.38000
H835        H  0.14163810  0.85890647  0.18991480     0.33500
H836        H  0.14489043  0.85248088  0.22483353     0.30100
H837        H  0.07470520  0.89818736  0.29674630     0.33500
H838        H  0.10494249  0.89727708  0.27872744     0.30100
H839        H  0.05326729  0.82249040  0.18221674     0.38000
H840        H  0.02574649  0.84505114  0.17902939     0.33500
C841        C  0.84759143  0.74139123  0.05915099    -0.20300
C842        C  0.87446595  0.73795399  0.04688462     0.36000
C843        C  0.89867774  0.74115400  0.06368425    -0.26200
C844        C  0.89641897  0.74787749  0.09227441     0.02400
C845        C  0.86962519  0.75215656  0.10426942     0.27200
C846        C  0.84554174  0.74938834  0.08743120    -0.25400
N847        N  0.87709036  0.73151587  0.01749589    -0.82700
H848        H  0.91938225  0.73802785  0.05462908     0.13000
C849        C  0.92184074  0.74785870  0.11033214     0.02400
N850        N  0.86698227  0.75835264  0.13373578    -0.81300
H851        H  0.82496493  0.75243361  0.09677402     0.17800
C852        C  0.92905377  0.77213217  0.12510636    -0.26200
C853        C  0.94906841  0.77103068  0.14700464     0.35900
C854        C  0.96154600  0.74499641  0.15440709    -0.20200
C855        C  0.95625510  0.72143766  0.13767195    -0.25400
C856        C  0.93640515  0.72264600  0.11587598     0.27200
H857        H  0.91805738  0.79162422  0.12040010     0.13000
N858        N  0.95608502  0.79595904  0.16221251    -0.82700
H859        H  0.96589398  0.70136226  0.14281396     0.17900
N860        N  0.92956260  0.69772440  0.10077255    -0.81300
H861        H  0.94487396  0.81324568  0.15423132     0.33500
H862        H  0.97742835  0.79987492  0.15879122     0.38000
H863        H  0.94797591  0.69012063  0.09137367     0.33500
H864        H  0.92277150  0.68273733  0.11525309     0.30100
H865        H  0.84580468  0.76100796  0.13919438     0.33500
H866        H  0.87445783  0.74092679  0.14502931     0.30100
H867        H  0.86895305  0.74859414  0.00611950     0.38000
H868        H  0.89830380  0.72956336  0.01191366     0.33500
C869        C  0.17832496  0.75768706  0.07147095    -0.20300
C870        C  0.17046625  0.73444140  0.08796685     0.36000
C871        C  0.14787010  0.73696655  0.10655062    -0.26200
C872        C  0.13317593  0.76238162  0.10908722     0.02400
C873        C  0.14053819  0.78551967  0.09234895     0.27200
C874        C  0.16292446  0.78284681  0.07330859    -0.25400
N875        N  0.18503477  0.70811026  0.08553026    -0.82700
H876        H  0.14218039  0.71922029  0.11955886     0.13000
C877        C  0.11211010  0.76508728  0.13147479     0.02400
N878        N  0.12554333  0.81165410  0.09520283    -0.81300
H879        H  0.16884325  0.80057580  0.06040492     0.17800
C880        C  0.11999503  0.77856102  0.15626991    -0.26200
C881        C  0.10239620  0.77838065  0.17979837     0.35900
C882        C  0.07627439  0.76449275  0.17824321    -0.20200
C883        C  0.06768683  0.75249799  0.15272517    -0.25400
C884        C  0.08559418  0.75240583  0.12930495     0.27200
H885        H  0.14048503  0.78828486  0.15756716     0.13000
N886        N  0.11134283  0.79150287  0.20545044    -0.82700
H887        H  0.04773616  0.74174229  0.15154604     0.17900
N888        N  0.07751721  0.73866405  0.10372326    -0.81300
H889        H  0.13132848  0.80017515  0.20313378     0.33500
H890        H  0.09744105  0.80813101  0.20943044     0.38000
H891        H  0.05745256  0.73007479  0.10569588     0.33500
H892        H  0.07605297  0.75394844  0.08795090     0.30100
H893        H  0.13375378  0.82669785  0.08156247     0.33500
H894        H  0.10470960  0.80839983  0.08888497     0.30100
H895        H  0.19303357  0.70256074  0.10534180     0.38000
H896        H  0.17046820  0.69296494  0.07955882     0.33500
C897        C  0.95906225  0.24591824  0.84518666    -0.20300
C898        C  0.95404102  0.26986683  0.86165976     0.36000
C899        C  0.93424551  0.26894952  0.88327934    -0.26200
C900        C  0.91920454  0.24447243  0.88884837     0.02400
C901        C  0.92476230  0.22013237  0.87285322     0.27200
C902        C  0.94442731  0.22123671  0.85082122    -0.25400
N903        N  0.96753819  0.29578574  0.85513990    -0.82700
H904        H  0.92955466  0.28795833  0.89479690     0.13000
C905        C  0.89556113  0.24593717  0.90911688     0.02400
N906        N  0.90998788  0.19467225  0.87868517    -0.81300
H907        H  0.94800234  0.20303977  0.83771894     0.17800
C908        C  0.86853154  0.23879666  0.89981526    -0.26200
C909        C  0.84503835  0.24252743  0.91707753     0.35900
C910        C  0.84835126  0.25391423  0.94419736    -0.20200
C911        C  0.87527144  0.26172612  0.95332670    -0.25400
C912        C  0.89905641  0.25717450  0.93633867     0.27200
H913        H  0.86545455  0.23111167  0.87861992     0.13000
N914        N  0.81760793  0.23599143  0.90640247    -0.82700
H915        H  0.87783103  0.27126383  0.97372848     0.17900
N916        N  0.92670161  0.26398451  0.94651834    -0.81300
H917        H  0.81759173  0.21484523  0.90081210     0.33500
H918        H  0.81401460  0.24791917  0.88820587     0.38000
H919        H  0.92562354  0.27201408  0.96691389     0.33500
H920        H  0.93838151  0.24532147  0.94783643     0.30100
H921        H  0.91633505  0.17884666  0.86488872     0.33500
H922        H  0.91581769  0.18805259  0.89890460     0.30100
H923        H  0.97832070  0.30240509  0.87309828     0.38000
H924        H  0.95191876  0.31072832  0.85038418     0.33500
C925        C  0.17253794  0.20379726  0.92687108    -0.20300
C926        C  0.18426555  0.19605285  0.90081083     0.36000
C927        C  0.16652263  0.19132669  0.87772515    -0.26200
C928        C  0.13746173  0.19666340  0.87956447     0.02400
C929        C  0.12554564  0.20208762  0.90613810     0.27200
C930        C  0.14315009  0.20497472  0.92971863    -0.25400
N931        N  0.21421154  0.19408829  0.89740895    -0.82700
H932        H  0.17575333  0.18570394  0.85771024     0.13000
C933        C  0.12082077  0.20170728  0.85344104     0.02400
N934        N  0.09581186  0.20668738  0.90889992    -0.81300
H935        H  0.13389101  0.21073991  0.94969852     0.17800
C936        C  0.09536525  0.18752920  0.84899018    -0.26200
C937        C  0.07693072  0.19553808  0.82702484     0.35900
C938        C  0.08438660  0.21756494  0.80882907    -0.20200
C939        C  0.11046929  0.23054456  0.81236118    -0.25400
C940        C  0.12838521  0.22338404  0.83455944     0.27200
H941        H  0.08931787  0.17089290  0.86323158     0.13000
N942        N  0.05075233  0.18137724  0.82335009    -0.82700
H943        H  0.11640797  0.24764876  0.79862350     0.17900
N944        N  0.15307010  0.24000044  0.83840905    -0.81300
H945        H  0.03923938  0.18335169  0.84194538     0.33500
H946        H  0.05516899  0.16011751  0.82025562     0.38000
H947        H  0.17102927  0.22755750  0.83556023     0.33500
H948        H  0.15304721  0.24824008  0.85874567     0.30100
H949        H  0.08823037  0.19226067  0.92355101     0.33500
H950        H  0.09251869  0.22679210  0.91694161     0.30100
H951        H  0.22005437  0.20841916  0.88186274     0.38000
H952        H  0.21918380  0.17400950  0.89014977     0.33500
C953        C  0.83242067  0.05976882  0.74550352    -0.20300
C954        C  0.84856642  0.06922066  0.72235520     0.36000
C955        C  0.86855052  0.09050243  0.72634811    -0.26200
C956        C  0.87336932  0.10206206  0.75299923     0.02400
C957        C  0.85913507  0.09100601  0.77641679     0.27200
C958        C  0.83877687  0.07020292  0.77244862    -0.25400
N959        N  0.84411959  0.05796865  0.69473217    -0.82700
H960        H  0.87976083  0.09880673  0.70840222     0.13000
C961        C  0.89172355  0.12704100  0.75592201     0.02400
N962        N  0.86501942  0.10145904  0.80411423    -0.81300
H963        H  0.82713219  0.06283805  0.79051737     0.17800
C964        C  0.88000965  0.15196491  0.76651098    -0.26200
C965        C  0.89604414  0.17645006  0.76885762     0.35900
C966        C  0.92454732  0.17610922  0.76030770    -0.20200
C967        C  0.93639695  0.15096730  0.75024479    -0.25400
C968        C  0.92028324  0.12649828  0.74784930     0.27200
H969        H  0.85803165  0.15239471  0.77259698     0.13000
N970        N  0.88338255  0.20164238  0.77972193    -0.82700
H971        H  0.95808347  0.15061103  0.74328552     0.17900
N972        N  0.93272601  0.10119656  0.73702861    -0.81300
H973        H  0.89367377  0.20634583  0.79858768     0.33500
H974        H  0.86222642  0.19842983  0.78470778     0.38000
H975        H  0.95383347  0.10435019  0.73179846     0.33500
H976        H  0.93264362  0.08627936  0.75319126     0.30100
H977        H  0.85267738  0.09133123  0.81911601     0.33500
H978        H  0.88600755  0.09639326  0.80887181     0.30100
H979        H  0.85021130  0.03686154  0.69537065     0.38000
H980        H  0.85734948  0.06763065  0.68020554     0.33500
C981        C  0.26918401  0.95341142  0.83733035    -0.20300
C982        C  0.29382329  0.93951655  0.84762963     0.36000
C983        C  0.29172673  0.92006208  0.86962992    -0.26200
C984        C  0.26568642  0.91399286  0.88179754     0.02400
C985        C  0.24155158  0.92936048  0.87347749     0.27200
C986        C  0.24363015  0.94918094  0.85160408    -0.25400
N987        N  0.32109059  0.94372698  0.83569294    -0.82700
H988        H  0.31042820  0.90861287  0.87643947     0.13000
C989        C  0.26389004  0.89000432  0.90155920     0.02400
N990        N  0.21500052  0.92446923  0.88695857    -0.81300
H991        H  0.22487499  0.96053971  0.84488245     0.17800
C992        C  0.27118237  0.89339596  0.92986455    -0.26200
C993        C  0.27193613  0.87035046  0.94837312     0.35900
C994        C  0.26552998  0.84323626  0.93841912    -0.20200
C995        C  0.25725451  0.84021124  0.91017742    -0.25400
C996        C  0.25654853  0.86330740  0.89174298     0.27200
H997        H  0.27666914  0.91396253  0.93755155     0.13000
N998        N  0.27902822  0.87472482  0.97728995    -0.82700
H999        H  0.25225549  0.81968741  0.90205596     0.17900
N1000       N  0.24904954  0.85953199  0.86280421    -0.81300
H1001       H  0.29899846  0.88369720  0.97820294     0.33500
H1002       H  0.26450827  0.88908044  0.98555719     0.38000
H1003       H  0.26305597  0.84491521  0.85414550     0.33500
H1004       H  0.22882224  0.85112414  0.86202828     0.30100
H1005       H  0.19941060  0.93783553  0.87868406     0.33500
H1006       H  0.20886769  0.90409680  0.88212320     0.30100
H1007       H  0.32601838  0.96494785  0.83717261     0.38000
H1008       H  0.32062361  0.93780917  0.81460891     0.33500
C1009       C  0.27254802  0.04730573  0.84593118    -0.20300
C1010       C  0.29611418  0.06235859  0.85520447     0.36000
C1011       C  0.29459318  0.07727917  0.88037380    -0.26200
C1012       C  0.27048140  0.07620476  0.89736013     0.02400
C1013       C  0.24858002  0.05777357  0.89003075     0.27200
C1014       C  0.24953782  0.04402494  0.86403592    -0.25400
N1015       N  0.32101277  0.06397655  0.83844578    -0.82700
H1016       H  0.31168089  0.09120855  0.88552073     0.13000
C1017       C  0.26691595  0.09721368  0.92009383     0.02400
N1018       N  0.22505039  0.05390978  0.90852753    -0.81300
H1019       H  0.23182901  0.03147358  0.85744895     0.17800
C1020       C  0.24147473  0.11255789  0.92150142    -0.26200
C1021       C  0.23825906  0.13501377  0.94008009     0.35900
C1022       C  0.26162409  0.14378957  0.95590806    -0.20200
C1023       C  0.28663967  0.12781921  0.95558988    -0.25400
C1024       C  0.28933878  0.10424273  0.93829811     0.27200
H1025       H  0.22419793  0.10759472  0.90750512     0.13000
N1026       N  0.21137233  0.14878893  0.94304911    -0.82700
H1027       H  0.30441572  0.13413512  0.96836788     0.17900
N1028       N  0.31489079  0.08776520  0.93878382    -0.81300
H1029       H  0.19629969  0.13955313  0.93005793     0.33500
H1030       H  0.20468343  0.14564025  0.96373711     0.38000
H1031       H  0.32935850  0.09595148  0.95312426     0.33500
H1032       H  0.30981291  0.06775954  0.94602731     0.30100
H1033       H  0.21071333  0.03984811  0.89988651     0.33500
H1034       H  0.23278226  0.04472450  0.92705952     0.30100
H1035       H  0.32500228  0.08508029  0.83448057     0.38000
H1036       H  0.33775426  0.05584399  0.85039767     0.33500
C1037       C  0.15722221  0.04843226  0.74727123    -0.20300
C1038       C  0.14131804  0.05118277  0.72206981     0.36000
C1039       C  0.11761571  0.06904445  0.72114731    -0.26200
C1040       C  0.10913414  0.08402881  0.74494711     0.02400
C1041       C  0.12346132  0.07977116  0.77065499     0.27200
C1042       C  0.14725773  0.06189329  0.77162001    -0.25400
N1043       N  0.14958319  0.03670859  0.69704420    -0.82700
H1044       H  0.10654085  0.07224338  0.70137470     0.13000
C1045       C  0.08834943  0.10723202  0.74169689     0.02400
N1046       N  0.11449412  0.09457578  0.79537372    -0.81300
H1047       H  0.15890172  0.05969808  0.79117293     0.17800
C1048       C  0.06062870  0.10437538  0.75142265    -0.26200
C1049       C  0.04124894  0.12697535  0.74970664     0.35900
C1050       C  0.05010304  0.15279382  0.73846260    -0.20200
C1051       C  0.07777159  0.15543982  0.72866028    -0.25400
C1052       C  0.09690000  0.13287726  0.72993297     0.27200
H1053       H  0.05425307  0.08461248  0.76052229     0.13000
N1054       N  0.01292684  0.12401435  0.75976254    -0.82700
H1055       H  0.08440541  0.17519669  0.71968882     0.17900
N1056       N  0.12506594  0.13585421  0.71937573    -0.81300
H1057       H  0.00978650  0.10371079  0.76734773     0.33500
H1058       H  0.01039752  0.13747603  0.77687162     0.38000
H1059       H  0.12786488  0.15588078  0.71093159     0.33500
H1060       H  0.13896049  0.13395392  0.73642739     0.30100
H1061       H  0.12713095  0.08901863  0.81263760     0.33500
H1062       H  0.11758103  0.11593883  0.79180963     0.30100
H1063       H  0.15293866  0.05154945  0.68121809     0.38000
H1064       H  0.13285054  0.02412176  0.69072035     0.33500
C1065       C  0.07803483  0.82141908  0.76405105    -0.20300
C1066       C  0.07072631  0.84929539  0.77126013     0.36000
C1067       C  0.09146304  0.86981005  0.77169334    -0.26200
C1068       C  0.11932977  0.86318580  0.76494340     0.02400
C1069       C  0.12711141  0.83540064  0.75862388     0.27200
C1070       C  0.10639196  0.81466843  0.75852864    -0.25400
N1071       N  0.04221038  0.85720222  0.77741486    -0.82700
H1072       H  0.08565666  0.89122836  0.77670730     0.13000
C1073       C  0.13988152  0.88591360  0.76347948     0.02400
N1074       N  0.15583273  0.82856397  0.75170446    -0.81300
H1075       H  0.11232843  0.79335856  0.75332647     0.17800
C1076       C  0.16024280  0.88805299  0.78466464    -0.26200
C1077       C  0.18077142  0.90882473  0.78332775     0.35900
C1078       C  0.18062838  0.92780594  0.76043437    -0.20200
C1079       C  0.15955038  0.92631691  0.73981780    -0.25400
C1080       C  0.13930394  0.90516566  0.74091424     0.27200
H1081       H  0.16031892  0.87321407  0.80199023     0.13000
N1082       N  0.20208387  0.91052328  0.80481991    -0.82700
H1083       H  0.16003064  0.94046019  0.72192825     0.17900
N1084       N  0.11877648  0.90246420  0.71878351    -0.81300
H1085       H  0.19948178  0.89480305  0.81994367     0.33500
H1086       H  0.19898760  0.92957406  0.81510466     0.38000
H1087       H  0.12131414  0.91820350  0.70367299     0.33500
H1088       H  0.12276229  0.88345818  0.70863220     0.30100
H1089       H  0.15803523  0.80716793  0.74757421     0.33500
H1090       H  0.16067141  0.83905598  0.73301568     0.30100
H1091       H  0.04170912  0.86570235  0.79763526     0.38000
H1092       H  0.03594794  0.87283425  0.76315311     0.33500
C1093       C  0.92928124  0.67483342  0.76884396    -0.20300
C1094       C  0.90671482  0.67565484  0.78808877     0.36000
C1095       C  0.89878964  0.65109846  0.80225514    -0.26200
C1096       C  0.91315218  0.62570482  0.79778790     0.02400
C1097       C  0.93497810  0.62455094  0.77790816     0.27200
C1098       C  0.94299429  0.64906352  0.76377743    -0.25400
N1099       N  0.89266563  0.70155258  0.79439008    -0.82700
H1100       H  0.88183867  0.65202439  0.81743515     0.13000
C1101       C  0.90506097  0.60062455  0.81418924     0.02400
N1102       N  0.94905393  0.59852775  0.77209375    -0.81300
H1103       H  0.96038319  0.64799971  0.74911122     0.17800
C1104       C  0.87959813  0.58742488  0.80782813    -0.26200
C1105       C  0.87098735  0.56387120  0.82313619     0.35900
C1106       C  0.88799804  0.55334626  0.84518796    -0.20200
C1107       C  0.91325192  0.56677543  0.85190053    -0.25400
C1108       C  0.92188923  0.59031824  0.83669416     0.27200
H1109       H  0.86647068  0.59533099  0.79077612     0.13000
N1110       N  0.84522172  0.55026315  0.81594494    -0.82700
H1111       H  0.92628989  0.55885724  0.86901607     0.17900
N1112       N  0.94746728  0.60371358  0.84490301    -0.81300
H1113       H  0.84642678  0.54406092  0.79491963     0.33500
H1114       H  0.82877890  0.56490044  0.81771524     0.38000
H1115       H  0.94282250  0.62462747  0.84957450     0.33500
H1116       H  0.96143777  0.60321079  0.82801561     0.30100
H1117       H  0.94662240  0.59431316  0.75066610     0.33500
H1118       H  0.97055784  0.60099646  0.77611661     0.30100
H1119       H  0.89486061  0.70526742  0.81594688     0.38000
H1120       H  0.87121352  0.69921936  0.79001701     0.33500
C1121       C  0.84160466  0.55475649  0.88832975    -0.20300
C1122       C  0.81176333  0.55508341  0.88893971     0.36000
C1123       C  0.79690944  0.57879016  0.89892606    -0.26200
C1124       C  0.81122946  0.60253559  0.90834291     0.02400
C1125       C  0.84100814  0.60260715  0.90685078     0.27200
C1126       C  0.85578476  0.57894819  0.89698583    -0.25400
N1127       N  0.79643053  0.53121621  0.87948961    -0.82700
H1128       H  0.77411022  0.57839727  0.89989016     0.13000
C1129       C  0.79533698  0.62623559  0.92171965     0.02400
N1130       N  0.85680668  0.62643241  0.91558250    -0.81300
H1131       H  0.87856517  0.57920234  0.89713052     0.17800
C1132       C  0.79471062  0.62773746  0.95113410    -0.26200
C1133       C  0.78323810  0.65123502  0.96496407     0.35900
C1134       C  0.77183424  0.67393509  0.94916828    -0.20200
C1135       C  0.77072456  0.67161721  0.91968184    -0.25400
C1136       C  0.78250965  0.64801911  0.90579912     0.27200
H1137       H  0.80419099  0.61086181  0.96336967     0.13000
N1138       N  0.78382944  0.65255434  0.99515246    -0.82700
H1139       H  0.76238593  0.68901319  0.90739384     0.17900
N1140       N  0.78228835  0.64648576  0.87562688    -0.81300
H1141       H  0.79309451  0.63444722  0.00373542     0.33500
H1142       H  0.76291027  0.65295387  0.00187075     0.38000
H1143       H  0.77207671  0.66406366  0.86699687     0.33500
H1144       H  0.80319147  0.64713117  0.86883134     0.30100
H1145       H  0.85255939  0.63028461  0.93676974     0.33500
H1146       H  0.84995490  0.64377200  0.90379065     0.30100
H1147       H  0.78308601  0.53766857  0.86308093     0.38000
H1148       H  0.78388943  0.52425825  0.89607470     0.33500
C1149       C  0.94552867  0.32872777  0.77968596    -0.20300
C1150       C  0.96216157  0.35161586  0.78832759     0.36000
C1151       C  0.94914261  0.37520874  0.80054930    -0.26200
C1152       C  0.91986936  0.37670098  0.80418750     0.02400
C1153       C  0.90305743  0.35456403  0.79448119     0.27200
C1154       C  0.91602150  0.33090329  0.78212719    -0.25400
N1155       N  0.99226212  0.35071027  0.78503421    -0.82700
H1156       H  0.96194271  0.39242490  0.80775555     0.13000
C1157       C  0.90754319  0.40107920  0.81946284     0.02400
N1158       N  0.87300969  0.35581408  0.79804160    -0.81300
H1159       H  0.90310352  0.31347247  0.77574416     0.17800
C1160       C  0.89226427  0.42177903  0.80468985    -0.26200
C1161       C  0.88234187  0.44610584  0.81835468     0.35900
C1162       C  0.88786070  0.44982699  0.84733168    -0.20200
C1163       C  0.90269336  0.42880853  0.86213145    -0.25400
C1164       C  0.91233521  0.40438266  0.84856060     0.27200
H1165       H  0.88858386  0.41917930  0.78234873     0.13000
N1166       N  0.86703853  0.46731471  0.80287002    -0.82700
H1167       H  0.90750179  0.43178978  0.88413755     0.17900
N1168       N  0.92737403  0.38301360  0.86408598    -0.81300
H1169       H  0.86493010  0.46159869  0.78177009     0.33500
H1170       H  0.84668415  0.46845473  0.81113825     0.38000
H1171       H  0.92927456  0.38861636  0.88523726     0.33500
H1172       H  0.91523254  0.36488948  0.86358441     0.30100
H1173       H  0.86366442  0.33787990  0.78983011     0.33500
H1174       H  0.86894540  0.35572546  0.81964248     0.30100
H1175       H  0.99643724  0.35012121  0.76347167     0.38000
H1176       H  0.00137554  0.36901166  0.79267611     0.33500
C1177       C  0.84488194  0.45159530  0.89249305    -0.20300
C1178       C  0.85438242  0.43474673  0.91531634     0.36000
C1179       C  0.83902500  0.41094551  0.92272076    -0.26200
C1180       C  0.81411585  0.40411953  0.90845430     0.02400
C1181       C  0.80426409  0.42122323  0.88627112     0.27200
C1182       C  0.81989367  0.44473088  0.87835649    -0.25400
N1183       N  0.87918497  0.44114486  0.93145103    -0.82700
H1184       H  0.84642728  0.39778179  0.93992971     0.13000
C1185       C  0.79879342  0.37869795  0.91682384     0.02400
N1186       N  0.77828302  0.41480278  0.87217893    -0.81300
H1187       H  0.81244361  0.45801285  0.86125955     0.17800
C1188       C  0.77708906  0.38070815  0.93663869    -0.26200
C1189       C  0.76440758  0.35659793  0.94737906     0.35900
C1190       C  0.77314128  0.32996138  0.93761691    -0.20200
C1191       C  0.79351146  0.32824959  0.91632108    -0.25400
C1192       C  0.80672781  0.35236510  0.90609687     0.27200
H1193       H  0.77079806  0.40105421  0.94461364     0.13000
N1194       N  0.74289689  0.35974971  0.96820324    -0.82700
H1195       H  0.80072757  0.30786792  0.90920027     0.17900
N1196       N  0.82916265  0.35017111  0.88596863    -0.81300
H1197       H  0.74966550  0.35027177  0.98691956     0.33500
H1198       H  0.72486671  0.34953258  0.96109597     0.38000
H1199       H  0.83293549  0.32923045  0.88070907     0.33500
H1200       H  0.82247422  0.36028900  0.86752699     0.30100
H1201       H  0.77373687  0.42976820  0.85663628     0.33500
H1202       H  0.78109604  0.39571483  0.86184075     0.30100
H1203       H  0.88898391  0.45916341  0.92404814     0.38000
H1204       H  0.87277227  0.44543076  0.95200749     0.33500
C1205       C  0.88067223  0.55605993  0.16010942    -0.20300
C1206       C  0.87873703  0.55706607  0.18971603     0.36000
C1207       C  0.88704432  0.58130854  0.20377429    -0.26200
C1208       C  0.89785890  0.60407498  0.18889893     0.02400
C1209       C  0.90002357  0.60302200  0.15923926     0.27200
C1210       C  0.89114316  0.57906586  0.14524582    -0.25400
N1211       N  0.86998114  0.53290955  0.20546108    -0.82700
H1212       H  0.88617004  0.58209782  0.22653846     0.13000
C1213       C  0.90982156  0.62716134  0.20507959     0.02400
N1214       N  0.91255099  0.62494828  0.14280865    -0.81300
H1215       H  0.89418018  0.57773833  0.12274279     0.17800
C1216       C  0.93656079  0.62329038  0.21703030    -0.26200
C1217       C  0.95066383  0.64569632  0.22924334     0.35900
C1218       C  0.93761526  0.67242689  0.22970703    -0.20200
C1219       C  0.90974000  0.67554303  0.21986437    -0.25400
C1220       C  0.89578819  0.65314243  0.20718405     0.27200
H1221       H  0.94706695  0.60305618  0.21568040     0.13000
N1222       N  0.97857054  0.64136782  0.24017751    -0.82700
H1223       H  0.89949897  0.69593078  0.22021538     0.17900
N1224       N  0.86785215  0.65680764  0.19579233    -0.81300
H1225       H  0.97776581  0.62584141  0.25572139     0.33500
H1226       H  0.99130863  0.63391227  0.22388753     0.38000
H1227       H  0.86039453  0.67714250  0.19947875     0.33500
H1228       H  0.86905400  0.65465255  0.17396498     0.30100
H1229       H  0.89693955  0.63318409  0.12945105     0.33500
H1230       H  0.91956918  0.64142546  0.15522765     0.30100
H1231       H  0.87073948  0.53685496  0.22706654     0.38000
H1232       H  0.84897150  0.52898436  0.20054354     0.33500
C1233       C  0.76721743  0.67924072  0.07701625    -0.20300
C1234       C  0.78654166  0.67738253  0.09959890     0.36000
C1235       C  0.79765595  0.65121555  0.10770273    -0.26200
C1236       C  0.79005098  0.62686441  0.09341880     0.02400
C1237       C  0.76919575  0.62825933  0.07223904     0.27200
C1238       C  0.75784813  0.65452711  0.06431828    -0.25400
N1239       N  0.79668886  0.70216030  0.11289163    -0.82700
H1240       H  0.81359459  0.65010865  0.12410020     0.13000
C1241       C  0.80615921  0.60073218  0.09918142     0.02400
N1242       N  0.76032276  0.60317043  0.05835026    -0.81300
H1243       H  0.74269298  0.65590736  0.04725560     0.17800
C1244       C  0.79767368  0.58349461  0.12140140    -0.26200
C1245       C  0.81334104  0.55958960  0.12888692     0.35900
C1246       C  0.83837644  0.55287081  0.11426365    -0.20200
C1247       C  0.84640136  0.56962263  0.09145255    -0.25400
C1248       C  0.83064373  0.59349164  0.08368630     0.27200
H1249       H  0.77879684  0.58874644  0.13308612     0.13000
N1250       N  0.80305088  0.54212744  0.15101481    -0.82700
H1251       H  0.86525718  0.56424995  0.07979157     0.17900
N1252       N  0.84044979  0.61000936  0.06039621    -0.81300
H1253       H  0.81820572  0.54128840  0.16690859     0.33500
H1254       H  0.80043115  0.52192644  0.14310792     0.38000
H1255       H  0.83939912  0.59755349  0.04240203     0.33500
H1256       H  0.82753361  0.62744136  0.05653713     0.30100
H1257       H  0.74467828  0.60781752  0.04342578     0.33500
H1258       H  0.77755515  0.59514884  0.04724990     0.30100
H1259       H  0.79213833  0.70076992  0.13434106     0.38000
H1260       H  0.81860628  0.70231138  0.11082752     0.33500
C1261       C  0.89647687  0.45321651  0.15603542    -0.20300
C1262       C  0.88079092  0.43656037  0.17475849     0.36000
C1263       C  0.89378000  0.41332898  0.18822362    -0.26200
C1264       C  0.92264125  0.40721698  0.18468014     0.02400
C1265       C  0.93843194  0.42451189  0.16637902     0.27200
C1266       C  0.92489974  0.44636763  0.15139774    -0.25400
N1267       N  0.85176996  0.44346486  0.18019075    -0.82700
H1268       H  0.88126665  0.39995660  0.20157250     0.13000
C1269       C  0.93568286  0.38166488  0.19841107     0.02400
N1270       N  0.96836421  0.42037746  0.16366351    -0.81300
H1271       H  0.93695677  0.45908135  0.13698134     0.17800
C1272       C  0.95217335  0.36381093  0.18185543    -0.26200
C1273       C  0.96467237  0.33942913  0.19279200     0.35900
C1274       C  0.95982534  0.33119153  0.22116395    -0.20200
C1275       C  0.94319901  0.34898901  0.23797733    -0.25400
C1276       C  0.93150267  0.37434140  0.22706224     0.27200
H1277       H  0.95507897  0.36847643  0.15973981     0.13000
N1278       N  0.98163039  0.32271302  0.17429333    -0.82700
H1279       H  0.93915849  0.34306287  0.25958916     0.17900
N1280       N  0.91544476  0.39259623  0.24497538    -0.81300
H1281       H  0.99813451  0.33501271  0.16689400     0.33500
H1282       H  0.96922233  0.31686471  0.15710637     0.38000
H1283       H  0.91428721  0.38427006  0.26531020     0.33500
H1284       H  0.92635234  0.41141964  0.24656360     0.30100
H1285       H  0.97681505  0.43493589  0.14963590     0.33500
H1286       H  0.97748352  0.42433079  0.18328996     0.30100
H1287       H  0.84313844  0.42917117  0.19436486     0.38000
H1288       H  0.85120322  0.46299995  0.19002652     0.33500
C1289       C  0.84975711  0.45137829  0.11296984    -0.20300
C1290       C  0.86451248  0.43034153  0.09842300     0.36000
C1291       C  0.84960948  0.40799431  0.08690460    -0.26200
C1292       C  0.82008712  0.40703750  0.08871039     0.02400
C1293       C  0.80530084  0.42813497  0.10326483     0.27200
C1294       C  0.82038890  0.44979217  0.11573867    -0.25400
N1295       N  0.89424719  0.43229563  0.09407127    -0.82700
H1296       H  0.86104000  0.39172164  0.07578398     0.13000
C1297       C  0.80494752  0.38401917  0.07490473     0.02400
N1298       N  0.77502838  0.42800868  0.10441919    -0.81300
H1299       H  0.80908721  0.46640455  0.12650630     0.17800
C1300       C  0.78734241  0.36689177  0.09101716    -0.26200
C1301       C  0.77449166  0.34340318  0.07914283     0.35900
C1302       C  0.77987524  0.33690055  0.05079596    -0.20200
C1303       C  0.79634324  0.35481537  0.03436831    -0.25400
C1304       C  0.80872586  0.37853488  0.04606532     0.27200
H1305       H  0.78449520  0.37129372  0.11316882     0.13000
N1306       N  0.75777617  0.32511828  0.09621140    -0.82700
H1307       H  0.80033205  0.34969394  0.01253791     0.17900
N1308       N  0.82564586  0.39669526  0.02902018    -0.81300
H1309       H  0.75708895  0.33224627  0.11696226     0.33500
H1310       H  0.73709641  0.32625697  0.08858565     0.38000
H1311       H  0.82642064  0.38955684  0.00827221     0.33500
H1312       H  0.81567260  0.41632608  0.02841405     0.30100
H1313       H  0.76747532  0.44511964  0.11589931     0.33500
H1314       H  0.76745005  0.43059724  0.08386970     0.30100
H1315       H  0.90380260  0.41423656  0.10242508     0.38000
H1316       H  0.89789455  0.43249188  0.07239913     0.33500
C1317       C  0.84626125  0.50509604  0.92666375    -0.20300
C1318       C  0.86660904  0.51766835  0.94411052     0.36000
C1319       C  0.86336623  0.51750440  0.97329978    -0.26200
C1320       C  0.84117828  0.50329795  0.98621302     0.02400
C1321       C  0.82050205  0.49069891  0.96902254     0.27200
C1322       C  0.82293173  0.49225154  0.93934053    -0.25400
N1323       N  0.89165345  0.52929564  0.93231495    -0.82700
H1324       H  0.87929096  0.52742319  0.98614466     0.13000
C1325       C  0.84200121  0.50028279  0.01758391     0.02400
N1326       N  0.79781826  0.47555413  0.98166307    -0.81300
H1327       H  0.80723977  0.48247660  0.92615867     0.17800
C1328       C  0.81929281  0.50918350  0.03443019    -0.26200
C1329       C  0.82158440  0.50935701  0.06411867     0.35900
C1330       C  0.84736079  0.50166916  0.07715887    -0.20200
C1331       C  0.86956534  0.49212469  0.06019740    -0.25400
C1332       C  0.86687065  0.49037361  0.03090677     0.27200
H1333       H  0.79991950  0.51645281  0.02454698     0.13000
N1334       N  0.79770095  0.51701014  0.08075305    -0.82700
H1335       H  0.88934255  0.48592568  0.07000117     0.17900
N1336       N  0.88946695  0.47865993  0.01449862    -0.81300
H1337       H  0.79103250  0.53705421  0.07452380     0.33500
H1338       H  0.78147340  0.50312736  0.07613580     0.38000
H1339       H  0.90628981  0.47238431  0.02743660     0.33500
H1340       H  0.88191828  0.46052992  0.00496264     0.30100
H1341       H  0.78460567  0.46738133  0.96615114     0.33500
H1342       H  0.80664072  0.45840514  0.99241357     0.30100
H1343       H  0.90901208  0.51831268  0.94058803     0.38000
H1344       H  0.89304320  0.55010807  0.93882930     0.33500
C1345       C  0.11163928  0.55145460  0.16162235    -0.20300
C1346       C  0.12704995  0.55680029  0.18652469     0.36000
C1347       C  0.11933518  0.57936076  0.20368973    -0.26200
C1348       C  0.09625929  0.59656766  0.19661660     0.02400
C1349       C  0.08102218  0.59143522  0.17168686     0.27200
C1350       C  0.08875887  0.56891432  0.15441446    -0.25400
N1351       N  0.15028244  0.53929698  0.19506544    -0.82700
H1352       H  0.13122527  0.58335379  0.22274093     0.13000
C1353       C  0.08863498  0.62060824  0.21469905     0.02400
N1354       N  0.05768275  0.60915418  0.16389712    -0.81300
H1355       H  0.07662917  0.56475947  0.13554880     0.17800
C1356       C  0.10319064  0.64575494  0.21133924    -0.26200
C1357       C  0.09291134  0.67069965  0.22330863     0.35900
C1358       C  0.06798727  0.67019796  0.23929303    -0.20200
C1359       C  0.05512316  0.64453586  0.24500776    -0.25400
C1360       C  0.06507489  0.61965325  0.23263310     0.27200
H1361       H  0.12134480  0.64629222  0.19761167     0.13000
N1362       N  0.10593822  0.69699268  0.21695399    -0.82700
H1363       H  0.03574817  0.64436218  0.25695929     0.17900
N1364       N  0.05064295  0.59373632  0.23715326    -0.81300
H1365       H  0.12356645  0.69394594  0.20416940     0.33500
H1366       H  0.11327809  0.70530252  0.23588854     0.38000
H1367       H  0.03401859  0.59658323  0.25124969     0.33500
H1368       H  0.04152960  0.58791048  0.21804793     0.30100
H1369       H  0.06186406  0.61776735  0.14411536     0.33500
H1370       H  0.03982568  0.59666224  0.16204202     0.30100
H1371       H  0.14309963  0.51879595  0.19719502     0.38000
H1372       H  0.16541685  0.53964132  0.17920164     0.33500
C1373       C  0.15472651  0.55338209  0.11618885    -0.20300
C1374       C  0.18436228  0.55454048  0.11797171     0.36000
C1375       C  0.19877775  0.57709214  0.10581329    -0.26200
C1376       C  0.18405876  0.59890327  0.09209751     0.02400
C1377       C  0.15422901  0.59888487  0.09230767     0.27200
C1378       C  0.13991269  0.57594343  0.10394528    -0.25400
N1379       N  0.19992208  0.53251754  0.13172995    -0.82700
H1380       H  0.22160729  0.57694194  0.10610989     0.13000
C1381       C  0.19977169  0.62043573  0.07571274     0.02400
N1382       N  0.13862550  0.62195012  0.08014458    -0.81300
H1383       H  0.11718540  0.57508267  0.10230192     0.17800
C1384       C  0.19261344  0.62474725  0.04732392    -0.26200
C1385       C  0.20461434  0.64640679  0.03160603     0.35900
C1386       C  0.22520155  0.66357222  0.04379628    -0.20200
C1387       C  0.23401963  0.65805268  0.07157685    -0.25400
C1388       C  0.22114002  0.63695994  0.08786385     0.27200
H1389       H  0.17678870  0.61179242  0.03750415     0.13000
N1390       N  0.19517503  0.65150288  0.00338819    -0.82700
H1391       H  0.24929174  0.67168490  0.08131278     0.17900
N1392       N  0.22868126  0.63322234  0.11696801    -0.81300
H1393       H  0.17348695  0.65555981  0.00384624     0.33500
H1394       H  0.19845016  0.63315846  0.99196983     0.38000
H1395       H  0.24456167  0.64710796  0.12268446     0.33500
H1396       H  0.21101744  0.63849680  0.12898387     0.30100
H1397       H  0.11695253  0.61871425  0.08190636     0.33500
H1398       H  0.14313722  0.63976429  0.09196932     0.30100
H1399       H  0.21120499  0.54132996  0.14835280     0.38000
H1400       H  0.21457001  0.52448208  0.11747721     0.33500
C1401       C  0.10283794  0.44876341  0.14938918    -0.20300
C1402       C  0.10586473  0.44168194  0.17811078     0.36000
C1403       C  0.09590392  0.41580279  0.18796831    -0.26200
C1404       C  0.08245669  0.39690443  0.16988288     0.02400
C1405       C  0.07841365  0.40459910  0.14143164     0.27200
C1406       C  0.08911062  0.43004049  0.13136869    -0.25400
N1407       N  0.11927182  0.46074387  0.19712773    -0.82700
H1408       H  0.09886383  0.41021977  0.20990879     0.13000
C1409       C  0.07224495  0.36973823  0.18155676     0.02400
N1410       N  0.06263490  0.38714148  0.12286234    -0.81300
H1411       H  0.08631768  0.43528419  0.10937650     0.17800
C1412       C  0.05604410  0.36989858  0.20625070    -0.26200
C1413       C  0.04722287  0.34485451  0.21887821     0.35900
C1414       C  0.05418454  0.31897004  0.20650240    -0.20200
C1415       C  0.07001530  0.31868534  0.18163357    -0.25400
C1416       C  0.07961452  0.34370241  0.16945322     0.27200
H1417       H  0.05018763  0.38964578  0.21585636     0.13000
N1418       N  0.03062006  0.34585433  0.24393378    -0.82700
H1419       H  0.07566176  0.29887144  0.17202646     0.17900
N1420       N  0.09773642  0.34244472  0.14547564    -0.81300
H1421       H  0.01250382  0.35783104  0.23967865     0.33500
H1422       H  0.04221949  0.35618869  0.25939593     0.38000
H1423       H  0.11563600  0.33063944  0.15097935     0.33500
H1424       H  0.08718066  0.33180225  0.12948045     0.30100
H1425       H  0.04537144  0.39878081  0.11532097     0.33500
H1426       H  0.07541842  0.38216611  0.10569618     0.30100
H1427       H  0.14027468  0.46263230  0.19095147     0.38000
H1428       H  0.11959576  0.45258073  0.21757169     0.33500
C1429       C  0.19344574  0.32317840  0.04208568    -0.20300
C1430       C  0.16430224  0.32954651  0.04490658     0.36000
C1431       C  0.15566107  0.35553794  0.05544049    -0.26200
C1432       C  0.17526876  0.37577588  0.06301350     0.02400
C1433       C  0.20426321  0.37024168  0.05922443     0.27200
C1434       C  0.21309972  0.34388702  0.04909860    -0.25400
N1435       N  0.14317653  0.30952936  0.03786781    -0.82700
H1436       H  0.13335944  0.35967743  0.05839091     0.13000
C1437       C  0.16494138  0.40199133  0.07622553     0.02400
N1438       N  0.22453888  0.39139243  0.06576072    -0.81300
H1439       H  0.23541539  0.33950202  0.04683065     0.17800
C1440       C  0.17355529  0.40824182  0.10374530    -0.26200
C1441       C  0.16340783  0.43223983  0.11738468     0.35900
C1442       C  0.14425126  0.45023874  0.10344278    -0.20200
C1443       C  0.13493699  0.44363142  0.07624270    -0.25400
C1444       C  0.14538954  0.41983691  0.06231017     0.27200
H1445       H  0.18815650  0.39435826  0.11472019     0.13000
N1446       N  0.17292076  0.43860815  0.14522796    -0.82700
H1447       H  0.11992567  0.45742446  0.06571917     0.17900
N1448       N  0.13651797  0.41385938  0.03403600    -0.81300
H1449       H  0.19486191  0.44024948  0.14480752     0.33500
H1450       H  0.16784210  0.42180028  0.15835454     0.38000
H1451       H  0.12206374  0.42901682  0.02689401     0.33500
H1452       H  0.15420789  0.41536733  0.02111612     0.30100
H1453       H  0.24497256  0.38408248  0.06174777     0.33500
H1454       H  0.22087553  0.40826318  0.05207042     0.30100
H1455       H  0.12990406  0.31843204  0.02256016     0.38000
H1456       H  0.13118412  0.30562684  0.05583117     0.33500
C1457       C  0.92279995  0.51099566  0.16006184    -0.20300
C1458       C  0.93585683  0.49990079  0.18447065     0.36000
C1459       C  0.96552434  0.50034093  0.18699059    -0.26200
C1460       C  0.98208704  0.51356963  0.16644012     0.02400
C1461       C  0.96841990  0.52823462  0.14429666     0.27200
C1462       C  0.93923337  0.52599566  0.14086303    -0.25400
N1463       N  0.91926337  0.48746723  0.20616068    -0.82700
H1464       H  0.97552665  0.48902772  0.20417195     0.13000
C1465       C  0.01318902  0.50853376  0.16483015     0.02400
N1466       N  0.98458237  0.54414666  0.12445021    -0.81300
H1467       H  0.92932481  0.53516207  0.12235596     0.17800
C1468       C  0.02360127  0.49765822  0.13955106    -0.26200
C1469       C  0.05244302  0.49604610  0.13422148     0.35900
C1470       C  0.07204907  0.50285639  0.15544154    -0.20200
C1471       C  0.06187735  0.51271466  0.18140703    -0.25400
C1472       C  0.03268683  0.51632602  0.18600594     0.27200
H1473       H  0.00907464  0.49175737  0.12299134     0.13000
N1474       N  0.06173111  0.48905962  0.10645170    -0.82700
H1475       H  0.07664206  0.51862071  0.19771349     0.17900
N1476       N  0.02362650  0.52927496  0.21155745    -0.81300
H1477       H  0.05383797  0.50432674  0.09258667     0.33500
H1478       H  0.05269654  0.47002145  0.10085040     0.38000
H1479       H  0.01121013  0.51519950  0.22269627     0.33500
H1480       H  0.01129263  0.54685866  0.20639122     0.30100
H1481       H  0.97144058  0.55342894  0.10925621     0.33500
H1482       H  0.99401184  0.56048496  0.13546462     0.30100
H1483       H  0.92285462  0.49857016  0.22470400     0.38000
H1484       H  0.92653038  0.46696974  0.20945974     0.33500
C1485       C  0.11607105  0.55037074  0.85016309    -0.20300
C1486       C  0.11870713  0.55156158  0.82064402     0.36000
C1487       C  0.11071418  0.57591923  0.80593473    -0.26200
C1488       C  0.10033602  0.59944666  0.82018478     0.02400
C1489       C  0.09846864  0.59867527  0.84977721     0.27200
C1490       C  0.10637022  0.57418545  0.86456104    -0.25400
N1491       N  0.12966878  0.52796809  0.80555259    -0.82700
H1492       H  0.11239204  0.57639350  0.78320952     0.13000
C1493       C  0.08995918  0.62392027  0.80357605     0.02400
N1494       N  0.08768605  0.62239424  0.86475262    -0.81300
H1495       H  0.10418743  0.57354874  0.88721345     0.17800
C1496       C  0.06617058  0.62091158  0.78627485    -0.26200
C1497       C  0.05523924  0.64362905  0.77062629     0.35900
C1498       C  0.06841770  0.66995339  0.77197568    -0.20200
C1499       C  0.09288658  0.67259373  0.78859357    -0.25400
C1500       C  0.10368440  0.64984943  0.80433704     0.27200
H1501       H  0.05574703  0.60086625  0.78524153     0.13000
N1502       N  0.03075680  0.63979189  0.75340642    -0.82700
H1503       H  0.10325111  0.69263023  0.79011694     0.17900
N1504       N  0.12875519  0.65303902  0.82083573    -0.81300
H1505       H  0.01440340  0.63300689  0.76632438     0.33500
H1506       H  0.03520476  0.62391682  0.73896702     0.38000
H1507       H  0.14497402  0.65898383  0.80734269     0.33500
H1508       H  0.12535797  0.66940185  0.83494896     0.30100
H1509       H  0.06999427  0.61604891  0.87603196     0.33500
H1510       H  0.10304328  0.62854804  0.87922813     0.30100
H1511       H  0.14754398  0.53438272  0.79460972     0.38000
H1512       H  0.11452614  0.52190001  0.79082104     0.33500
C1513       C  0.15913484  0.54665847  0.89603705    -0.20300
C1514       C  0.17968083  0.55894051  0.87870192     0.36000
C1515       C  0.19473402  0.58239534  0.88811989    -0.26200
C1516       C  0.19003213  0.59371135  0.91491167     0.02400
C1517       C  0.16916775  0.58158912  0.93215800     0.27200
C1518       C  0.15371781  0.55861576  0.92245265    -0.25400
N1519       N  0.18523667  0.54764694  0.85141539    -0.82700
H1520       H  0.21011349  0.59189255  0.87438750     0.13000
C1521       C  0.20473210  0.61991864  0.92324019     0.02400
N1522       N  0.16308972  0.59235208  0.95953948    -0.81300
H1523       H  0.13764655  0.54973729  0.93580904     0.17800
C1524       C  0.19407396  0.64549939  0.91321510    -0.26200
C1525       C  0.20533930  0.67095772  0.92228692     0.35900
C1526       C  0.22820368  0.67133636  0.94152648    -0.20200
C1527       C  0.24002556  0.64562436  0.95040387    -0.25400
C1528       C  0.22828239  0.61994299  0.94153031     0.27200
H1529       H  0.17613679  0.64576463  0.89899677     0.13000
N1530       N  0.19284213  0.69665614  0.91248603    -0.82700
H1531       H  0.25705240  0.64542313  0.96566518     0.17900
N1532       N  0.23964061  0.59396812  0.95188045    -0.81300
H1533       H  0.17156579  0.69684298  0.91812494     0.33500
H1534       H  0.19395193  0.69694915  0.89053492     0.38000
H1535       H  0.26090145  0.59288395  0.94629931     0.33500
H1536       H  0.23850021  0.59417750  0.97383715     0.30100
H1537       H  0.15748597  0.61350527  0.95756099     0.33500
H1538       H  0.18140462  0.59072616  0.97174115     0.30100
H1539       H  0.18152922  0.56347968  0.83653977     0.38000
H1540       H  0.20657245  0.54204208  0.85055455     0.33500
C1541       C  0.06606370  0.32420876  0.77791005    -0.20300
C1542       C  0.08121938  0.32472572  0.80355842     0.36000
C1543       C  0.09053346  0.35015699  0.81446475    -0.26200
C1544       C  0.08494489  0.37535826  0.80036029     0.02400
C1545       C  0.07129741  0.37500005  0.77389325     0.27200
C1546       C  0.06212640  0.34923929  0.76271335    -0.25400
N1547       N  0.08646895  0.29936544  0.81906395    -0.82700
H1548       H  0.10132541  0.35033976  0.83462300     0.13000
C1549       C  0.09215007  0.40176690  0.81481590     0.02400
N1550       N  0.06614107  0.40079053  0.75895936    -0.81300
H1551       H  0.05028124  0.34895955  0.74318403     0.17800
C1552       C  0.11839452  0.41399526  0.81006495    -0.26200
C1553       C  0.12699183  0.43723397  0.82577982     0.35900
C1554       C  0.10929891  0.44826696  0.84680001    -0.20200
C1555       C  0.08298644  0.43604192  0.85153389    -0.25400
C1556       C  0.07409493  0.41305917  0.83548814     0.27200
H1557       H  0.13242575  0.40518219  0.79442933     0.13000
N1558       N  0.15380602  0.44960364  0.82049010    -0.82700
H1559       H  0.06942787  0.44448778  0.86776924     0.17900
N1560       N  0.04704505  0.40076620  0.84038411    -0.81300
H1561       H  0.16938249  0.43420631  0.82352293     0.33500
H1562       H  0.15426941  0.45590380  0.79940940     0.38000
H1563       H  0.03643900  0.41138137  0.85642721     0.33500
H1564       H  0.03495972  0.40364491  0.82213212     0.30100
H1565       H  0.05595601  0.39692995  0.73984239     0.33500
H1566       H  0.05223622  0.41290782  0.77095048     0.30100
H1567       H  0.10824835  0.29707844  0.82182516     0.38000
H1568       H  0.07736515  0.30146684  0.83893945     0.33500
C1569       C  0.20766486  0.31248764  0.94815041    -0.20300
C1570       C  0.21591913  0.33871375  0.95867573     0.36000
C1571       C  0.20568024  0.36351446  0.94562936    -0.26200
C1572       C  0.18739282  0.36262015  0.92223444     0.02400
C1573       C  0.18043108  0.33631120  0.91096727     0.27200
C1574       C  0.19028852  0.31163735  0.92414579    -0.25400
N1575       N  0.23325541  0.34009615  0.98345727    -0.82700
H1576       H  0.21120365  0.38365644  0.95433015     0.13000
C1577       C  0.17501672  0.38930628  0.91064254     0.02400
N1578       N  0.16334771  0.33453506  0.88612338    -0.81300
H1579       H  0.18389309  0.29157725  0.91582239     0.17800
C1580       C  0.19283598  0.41087922  0.90175827    -0.26200
C1581       C  0.18183734  0.43688709  0.89246984     0.35900
C1582       C  0.15244532  0.44184309  0.89216362    -0.20200
C1583       C  0.13465809  0.42006402  0.90062821    -0.25400
C1584       C  0.14560080  0.39409317  0.90989694     0.27200
H1585       H  0.21546079  0.40755261  0.90212339     0.13000
N1586       N  0.20061515  0.45820832  0.88310670    -0.82700
H1587       H  0.11208628  0.42347529  0.90100641     0.17900
N1588       N  0.12672087  0.37301914  0.91962137    -0.81300
H1589       H  0.21238679  0.45016712  0.86639406     0.33500
H1590       H  0.21451773  0.46260899  0.89958444     0.38000
H1591       H  0.11499349  0.38137331  0.93621206     0.33500
H1592       H  0.11276146  0.36847753  0.90322147     0.30100
H1593       H  0.17485856  0.32367179  0.87088487     0.33500
H1594       H  0.14558507  0.32271096  0.89092933     0.30100
H1595       H  0.25297652  0.33155654  0.97848800     0.38000
H1596       H  0.23660994  0.36093305  0.98909287     0.33500
C1597       C  0.15631813  0.49195253  0.92924438    -0.20300
C1598       C  0.13575055  0.48164263  0.94787112     0.36000
C1599       C  0.13967233  0.48378603  0.97687430    -0.26200
C1600       C  0.16298432  0.49752698  0.98814308     0.02400
C1601       C  0.18442805  0.50675668  0.96992531     0.27200
C1602       C  0.18124592  0.50312952  0.94054294    -0.25400
N1603       N  0.10978722  0.47061733  0.93745478    -0.82700
H1604       H  0.12332421  0.47625748  0.99075907     0.13000
C1605       C  0.16246716  0.50390893  0.01874025     0.02400
N1606       N  0.20851851  0.52090909  0.98113504    -0.81300
H1607       H  0.19720281  0.51089608  0.92638608     0.17800
C1608       C  0.18258496  0.49201566  0.03711192    -0.26200
C1609       C  0.17877410  0.49305348  0.06649139     0.35900
C1610       C  0.15430394  0.50589033  0.07758585    -0.20200
C1611       C  0.13544459  0.51955505  0.05915391    -0.25400
C1612       C  0.13939511  0.51897685  0.02997783     0.27200
H1613       H  0.20046460  0.48060472  0.02864017     0.13000
N1614       N  0.19916649  0.48012781  0.08478495    -0.82700
H1615       H  0.11666422  0.52951835  0.06754195     0.17900
N1616       N  0.11933137  0.53254307  0.01150591    -0.81300
H1617       H  0.20124411  0.45911445  0.07902374     0.33500
H1618       H  0.21855969  0.48957235  0.08106760     0.38000
H1619       H  0.10338709  0.54241172  0.02303858     0.33500
H1620       H  0.12991153  0.54831604  0.00065875     0.30100
H1621       H  0.22213834  0.52662649  0.96492370     0.33500
H1622       H  0.20133978  0.53954786  0.99023270     0.30100
H1623       H  0.09327686  0.48295014  0.94525176     0.38000
H1624       H  0.10755883  0.45042433  0.94567241     0.33500
C1625       C  0.07563736  0.50295691  0.85157943    -0.20300
C1626       C  0.05773969  0.51391653  0.87253682     0.36000
C1627       C  0.02847218  0.51419420  0.86863930    -0.26200
C1628       C  0.01591503  0.50231946  0.84478284     0.02400
C1629       C  0.03367170  0.49219035  0.82310580     0.27200
C1630       C  0.06339215  0.49316882  0.82648705    -0.25400
N1631       N  0.06916465  0.52359529  0.89864639    -0.82700
H1632       H  0.01530891  0.52270022  0.88517086     0.13000
C1633       C  0.98438039  0.49933626  0.84450709     0.02400
N1634       N  0.02159813  0.47999830  0.79832428    -0.81300
H1635       H  0.07697251  0.48491778  0.81018717     0.17800
C1636       C  0.96761742  0.50956460  0.82204433    -0.26200
C1637       C  0.93780533  0.50935915  0.82328825     0.35900
C1638       C  0.92437849  0.49999404  0.84821888    -0.20200
C1639       C  0.94129017  0.48876175  0.86991882    -0.25400
C1640       C  0.97069291  0.48761650  0.86798350     0.27200
H1641       H  0.97769161  0.51808987  0.80354580     0.13000
N1642       N  0.92214399  0.51806900  0.79878661    -0.82700
H1643       H  0.93151434  0.48088580  0.88889911     0.17900
N1644       N  0.98667977  0.47435185  0.89007003    -0.81300
H1645       H  0.90053700  0.51562960  0.80168569     0.33500
H1646       H  0.92581221  0.53936984  0.79550694     0.38000
H1647       H  0.98199013  0.48452617  0.90893323     0.33500
H1648       H  0.98003342  0.45362225  0.89183154     0.30100
H1649       H  0.03745563  0.47353677  0.78452158     0.33500
H1650       H  0.01102327  0.46192704  0.80453777     0.30100
H1651       H  0.06049482  0.51169084  0.91488172     0.38000
H1652       H  0.06263764  0.54437876  0.90139439     0.33500
C1653       C  0.67136797  0.94346688  0.76429813    -0.20300
C1654       C  0.67149660  0.91650961  0.77707785     0.36000
C1655       C  0.64745183  0.90719883  0.79180974    -0.26200
C1656       C  0.62311512  0.92402747  0.79399732     0.02400
C1657       C  0.62216563  0.94988736  0.77961303     0.27200
C1658       C  0.64610322  0.95929781  0.76498318    -0.25400
N1659       N  0.69627198  0.89897249  0.77585602    -0.82700
H1660       H  0.64794659  0.88701306  0.80230701     0.13000
C1661       C  0.59880237  0.91475769  0.81166235     0.02400
N1662       N  0.59697418  0.96681070  0.78047417    -0.81300
H1663       H  0.64535012  0.97981268  0.75520778     0.17800
C1664       C  0.59439710  0.92676931  0.83829763    -0.26200
C1665       C  0.57068710  0.91985653  0.85468965     0.35900
C1666       C  0.55094558  0.90057154  0.84449908    -0.20200
C1667       C  0.55559731  0.88824313  0.81808297    -0.25400
C1668       C  0.57923196  0.89513490  0.80158377     0.27200
H1669       H  0.60920112  0.94198420  0.84618030     0.13000
N1670       N  0.56624961  0.93310978  0.88124725    -0.82700
H1671       H  0.54025499  0.87365976  0.81000668     0.17900
N1672       N  0.58315896  0.88269535  0.77439682    -0.81300
H1673       H  0.56514372  0.95473849  0.87784845     0.33500
H1674       H  0.58382842  0.92882666  0.89395858     0.38000
H1675       H  0.56700727  0.86862215  0.77008336     0.33500
H1676       H  0.58144989  0.89867465  0.75935503     0.30100
H1677       H  0.59961992  0.98542547  0.76918996     0.33500
H1678       H  0.58114726  0.95576009  0.77011937     0.30100
H1679       H  0.69953418  0.89384219  0.75475522     0.38000
H1680       H  0.69308421  0.88011813  0.78657842     0.33500
C1681       C  0.66637612  0.79358052  0.95871562    -0.20300
C1682       C  0.64129349  0.77839728  0.95538048     0.36000
C1683       C  0.61723013  0.79193138  0.94353488    -0.26200
C1684       C  0.61819004  0.81999386  0.93422004     0.02400
C1685       C  0.64347175  0.83482041  0.93706670     0.27200
C1686       C  0.66696817  0.82167076  0.94959386    -0.25400
N1687       N  0.64003045  0.74982703  0.96477455    -0.82700
H1688       H  0.59768995  0.78060382  0.94151040     0.13000
C1689       C  0.59300457  0.83399472  0.92119113     0.02400
N1690       N  0.64526667  0.86316778  0.92690067    -0.81300
H1691       H  0.68627662  0.83337663  0.95164402     0.17800
C1692       C  0.58027880  0.85690130  0.93485326    -0.26200
C1693       C  0.55794939  0.87217218  0.92234368     0.35900
C1694       C  0.54755289  0.86387638  0.89564815    -0.20200
C1695       C  0.56067971  0.84137011  0.88182281    -0.25400
C1696       C  0.58326615  0.82658055  0.89414137     0.27200
H1697       H  0.58795878  0.86312386  0.95537411     0.13000
N1698       N  0.54598092  0.89532460  0.93762602    -0.82700
H1699       H  0.55299602  0.83498054  0.86135356     0.17900
N1700       N  0.59636145  0.80453126  0.87842046    -0.81300
H1701       H  0.56187776  0.90998750  0.94063576     0.33500
H1702       H  0.53017998  0.90553764  0.92602770     0.38000
H1703       H  0.59457068  0.78583760  0.88972437     0.33500
H1704       H  0.61773885  0.80907034  0.87622089     0.30100
H1705       H  0.66533754  0.87120306  0.93064906     0.33500
H1706       H  0.64260327  0.86275651  0.90505917     0.30100
H1707       H  0.65353490  0.73800460  0.95207817     0.38000
H1708       H  0.61980017  0.74196213  0.96161207     0.33500
C1709       C  0.44929888  0.89915301  0.83182045    -0.20300
C1710       C  0.44052510  0.87874775  0.81231153     0.36000
C1711       C  0.41865683  0.88521886  0.79304821    -0.26200
C1712       C  0.40575608  0.91183133  0.79263786     0.02400
C1713       C  0.41409483  0.93195559  0.81254731     0.27200
C1714       C  0.43578119  0.92545995  0.83165869    -0.25400
N1715       N  0.45376523  0.85153258  0.81225260    -0.82700
H1716       H  0.41176144  0.86957236  0.77817949     0.13000
C1717       C  0.38201334  0.91811982  0.77299788     0.02400
N1718       N  0.39987817  0.95869249  0.81386209    -0.81300
H1719       H  0.44098311  0.94064719  0.84744692     0.17800
C1720       C  0.35710110  0.90282145  0.77524759    -0.26200
C1721       C  0.33181363  0.91283946  0.76305386     0.35900
C1722       C  0.33151022  0.93903883  0.74888809    -0.20200
C1723       C  0.35734053  0.95198576  0.74321386    -0.25400
C1724       C  0.38251502  0.94171963  0.75515040     0.27200
H1725       H  0.35688343  0.88420371  0.78835853     0.13000
N1726       N  0.30615875  0.89761912  0.76695647    -0.82700
H1727       H  0.35779615  0.97149827  0.73151214     0.17900
N1728       N  0.40835173  0.95617369  0.75039532    -0.81300
H1729       H  0.30994577  0.87922757  0.77845192     0.33500
H1730       H  0.29908193  0.89152413  0.74707250     0.38000
H1731       H  0.41205976  0.95644419  0.72873837     0.33500
H1732       H  0.40568947  0.97689946  0.75696238     0.30100
H1733       H  0.37903148  0.95511866  0.81974699     0.33500
H1734       H  0.40871127  0.97123162  0.82948684     0.30100
H1735       H  0.47484704  0.85412878  0.80663217     0.38000
H1736       H  0.44468339  0.83884193  0.79690310     0.33500
C1737       C  0.44481033  0.85560886  0.87836258    -0.20300
C1738       C  0.41736136  0.86683706  0.88227267     0.36000
C1739       C  0.39484547  0.84885731  0.88798347    -0.26200
C1740       C  0.39901675  0.81984976  0.89040826     0.02400
C1741       C  0.42605093  0.80838187  0.88587462     0.27200
C1742       C  0.44853405  0.82630690  0.87956750    -0.25400
N1743       N  0.41216993  0.89640416  0.88175550    -0.82700
H1744       H  0.37413329  0.85776171  0.89195741     0.13000
C1745       C  0.37609108  0.80270843  0.90245072     0.02400
N1746       N  0.43072202  0.77869612  0.88855015    -0.81300
H1747       H  0.46938856  0.81742603  0.87638165     0.17800
C1748       C  0.35879481  0.78623250  0.88526196    -0.26200
C1749       C  0.33566964  0.77172319  0.89665515     0.35900
C1750       C  0.32991926  0.77351851  0.92573422    -0.20200
C1751       C  0.34793783  0.78959307  0.94271276    -0.25400
C1752       C  0.37086647  0.80397930  0.93148758     0.27200
H1753       H  0.36282026  0.78521064  0.86287503     0.13000
N1754       N  0.31787349  0.75578657  0.87854277    -0.82700
H1755       H  0.34351461  0.79207961  0.96485990     0.17900
N1756       N  0.38848145  0.82066522  0.94936285    -0.81300
H1757       H  0.30967148  0.76926055  0.86307384     0.33500
H1758       H  0.33035746  0.74065277  0.86859500     0.38000
H1759       H  0.38155496  0.81986898  0.97019438     0.33500
H1760       H  0.40870658  0.81174528  0.94923727     0.30100
H1761       H  0.45178347  0.77359352  0.88443328     0.33500
H1762       H  0.42712512  0.77317246  0.90952393     0.30100
H1763       H  0.40317249  0.90217587  0.90091436     0.38000
H1764       H  0.39693499  0.90044660  0.86625065     0.33500
C1765       C  0.54972318  0.89546048  0.15342993    -0.20300
C1766       C  0.55437113  0.89164747  0.18247212     0.36000
C1767       C  0.57886319  0.90216042  0.19499922    -0.26200
C1768       C  0.59861712  0.91680125  0.17894292     0.02400
C1769       C  0.59373090  0.92097992  0.14986564     0.27200
C1770       C  0.56946637  0.90999254  0.13737448    -0.25400
N1771       N  0.53434097  0.87686290  0.19918257    -0.82700
H1772       H  0.58258336  0.89868601  0.21725818     0.13000
C1773       C  0.62495133  0.92672345  0.19228261     0.02400
N1774       N  0.61324204  0.93677904  0.13326606    -0.81300
H1775       H  0.56542784  0.91359271  0.11520612     0.17800
C1776       C  0.65070327  0.91785541  0.18092826    -0.26200
C1777       C  0.67611862  0.92848312  0.19087174     0.35900
C1778       C  0.67609481  0.94765795  0.21328656    -0.20200
C1779       C  0.65052589  0.95556481  0.22577857    -0.25400
C1780       C  0.62475076  0.94558430  0.21513184     0.27200
H1781       H  0.65103345  0.90309715  0.16366949     0.13000
N1782       N  0.70204827  0.91994730  0.17795272    -0.82700
H1783       H  0.65059470  0.97058333  0.24278881     0.17900
N1784       N  0.59846221  0.95519176  0.22672040    -0.81300
H1785       H  0.70386995  0.89816437  0.17959539     0.33500
H1786       H  0.70094720  0.92520616  0.15659446     0.38000
H1787       H  0.60201504  0.96915501  0.24320057     0.33500
H1788       H  0.58774029  0.96646385  0.21099794     0.30100
H1789       H  0.60663153  0.93779490  0.11226745     0.33500
H1790       H  0.61299314  0.95731385  0.14079335     0.30100
H1791       H  0.52770992  0.89008367  0.21537073     0.38000
H1792       H  0.54464392  0.85961260  0.20835201     0.33500
C1793       C  0.67796635  0.79159864  0.06100579    -0.20300
C1794       C  0.65332270  0.77548412  0.05882574     0.36000
C1795       C  0.62759828  0.78612137  0.06933873    -0.26200
C1796       C  0.62616196  0.81270515  0.08182245     0.02400
C1797       C  0.65094355  0.82823033  0.08496402     0.27200
C1798       C  0.67648505  0.81768406  0.07453812    -0.25400
N1799       N  0.65401405  0.74905344  0.04475571    -0.82700
H1800       H  0.60855331  0.77407284  0.06682936     0.13000
C1801       C  0.59864034  0.82520051  0.09004606     0.02400
N1802       N  0.65008892  0.85497682  0.09848206    -0.81300
H1803       H  0.69524208  0.83025360  0.07665784     0.17800
C1804       C  0.58484091  0.81575089  0.11424701    -0.26200
C1805       C  0.56004715  0.82898423  0.12376822     0.35900
C1806       C  0.54896566  0.85245633  0.10875299    -0.20200
C1807       C  0.56289433  0.86170586  0.08453076    -0.25400
C1808       C  0.58726433  0.84807383  0.07489576     0.27200
H1809       H  0.59366230  0.79827079  0.12609427     0.13000
N1810       N  0.54706512  0.81821769  0.14881296    -0.82700
H1811       H  0.55503281  0.87984174  0.07311902     0.17900
N1812       N  0.60054029  0.85752825  0.04964146    -0.81300
H1813       H  0.54066874  0.79779131  0.14456827     0.33500
H1814       H  0.52889902  0.82947236  0.15409761     0.38000
H1815       H  0.60583329  0.87854331  0.05227575     0.33500
H1816       H  0.58581890  0.85640781  0.03325579     0.30100
H1817       H  0.66390051  0.85424065  0.11567686     0.33500
H1818       H  0.65746920  0.86994662  0.08428299     0.30100
H1819       H  0.64688309  0.73381157  0.05878885     0.38000
H1820       H  0.63988473  0.75011529  0.02783080     0.33500
C1821       C  0.44605041  0.89644703  0.15551621    -0.20300
C1822       C  0.42897305  0.91975192  0.14858414     0.36000
C1823       C  0.40768041  0.92851385  0.16715577    -0.26200
C1824       C  0.40408590  0.91529235  0.19342407     0.02400
C1825       C  0.42152813  0.89203284  0.20044147     0.27200
C1826       C  0.44171335  0.88242022  0.18106791    -0.25400
N1827       N  0.43397446  0.93525455  0.12330564    -0.82700
H1828       H  0.39427326  0.94610042  0.16121268     0.13000
C1829       C  0.38184306  0.92561528  0.21314656     0.02400
N1830       N  0.41977039  0.87921846  0.22779764    -0.81300
H1831       H  0.45552646  0.86503687  0.18672671     0.17800
C1832       C  0.36341582  0.90629323  0.22536242    -0.26200
C1833       C  0.34079220  0.91503753  0.24220250     0.35900
C1834       C  0.33519382  0.94398282  0.24547069    -0.20200
C1835       C  0.35501627  0.96323193  0.23535312    -0.25400
C1836       C  0.37834767  0.95436691  0.21941116     0.27200
H1837       H  0.36596685  0.88421280  0.22084598     0.13000
N1838       N  0.32255062  0.89460108  0.25459207    -0.82700
H1839       H  0.35130652  0.98547045  0.23812626     0.17900
N1840       N  0.39795860  0.97454731  0.20886470    -0.81300
H1841       H  0.32938919  0.87428812  0.24983090     0.33500
H1842       H  0.32412105  0.89664530  0.27642936     0.38000
H1843       H  0.39215837  0.99478929  0.21504689     0.33500
H1844       H  0.41753170  0.97020637  0.21818573     0.30100
H1845       H  0.43423530  0.86263330  0.22971493     0.33500
H1846       H  0.42564162  0.89420050  0.24261689     0.30100
H1847       H  0.41529171  0.93574785  0.11157046     0.38000
H1848       H  0.43871924  0.95581594  0.12890179     0.33500
C1849       C  0.44542485  0.85504174  0.10782527    -0.20300
C1850       C  0.42963134  0.86326162  0.08376557     0.36000
C1851       C  0.40968741  0.84483871  0.07256897    -0.26200
C1852       C  0.40503912  0.81842971  0.08472764     0.02400
C1853       C  0.42052150  0.81046810  0.10909001     0.27200
C1854       C  0.44014336  0.82904822  0.12046286    -0.25400
N1855       N  0.43391554  0.88951941  0.06960268    -0.82700
H1856       H  0.39777730  0.85113805  0.05403391     0.13000
C1857       C  0.38318523  0.80022701  0.07207174     0.02400
N1858       N  0.41766703  0.78350231  0.12232725    -0.81300
H1859       H  0.45265569  0.82241006  0.13849408     0.17800
C1860       C  0.38751418  0.78849143  0.04536314    -0.26200
C1861       C  0.36609836  0.77321826  0.03188011     0.35900
C1862       C  0.34007155  0.76950016  0.04547485    -0.20200
C1863       C  0.33633744  0.78014691  0.07269455    -0.25400
C1864       C  0.35746701  0.79575205  0.08599198     0.27200
H1865       H  0.40730994  0.79200823  0.03471436     0.13000
N1866       N  0.37012113  0.76260486  0.00396176    -0.82700
H1867       H  0.31597161  0.77818950  0.08269854     0.17900
N1868       N  0.35251748  0.80809576  0.11307871    -0.81300
H1869       H  0.39025425  0.76741487  0.99667014     0.33500
H1870       H  0.36906147  0.74077875  0.00506023     0.38000
H1871       H  0.35248342  0.82985066  0.11047802     0.33500
H1872       H  0.33253545  0.80287039  0.12047498     0.30100
H1873       H  0.43719684  0.77322285  0.12109482     0.33500
H1874       H  0.40342703  0.77089885  0.11162266     0.30100
H1875       H  0.44901030  0.90149329  0.07988542     0.38000
H1876       H  0.41500229  0.90090820  0.07054523     0.33500
C1877       C  0.49722287  0.85698925  0.07268140    -0.20300
C1878       C  0.49286126  0.83065469  0.06023483     0.36000
C1879       C  0.49129351  0.82862936  0.03051693    -0.26200
C1880       C  0.49486327  0.85238876  0.01320970     0.02400
C1881       C  0.50093440  0.87832974  0.02604633     0.27200
C1882       C  0.50126793  0.88040397  0.05541672    -0.25400
N1883       N  0.48956382  0.80635379  0.07774609    -0.82700
H1884       H  0.48673847  0.80867149  0.02089826     0.13000
C1885       C  0.49075696  0.85114492  0.98190402     0.02400
N1886       N  0.50668806  0.90262358  0.00910330    -0.81300
H1887       H  0.50491372  0.90056437  0.06509776     0.17800
C1888       C  0.47279913  0.87111456  0.96939334    -0.26200
C1889       C  0.47297647  0.87606993  0.94036614     0.35900
C1890       C  0.48987055  0.85939652  0.92248595    -0.20200
C1891       C  0.50480274  0.83661145  0.93460383    -0.25400
C1892       C  0.50623461  0.83290796  0.96421629     0.27200
H1893       H  0.46000986  0.88462687  0.98257394     0.13000
N1894       N  0.45724430  0.89947746  0.92956646    -0.82700
H1895       H  0.51697947  0.82290148  0.92113722     0.17900
N1896       N  0.52436405  0.81170237  0.97626813    -0.81300
H1897       H  0.46464429  0.91745603  0.93949799     0.33500
H1898       H  0.43632785  0.89697506  0.93573957     0.38000
H1899       H  0.53435080  0.80022365  0.96042978     0.33500
H1900       H  0.54028726  0.82183667  0.98741558     0.30100
H1901       H  0.51052462  0.92004369  0.02173624     0.33500
H1902       H  0.52526471  0.89856394  0.99803508     0.30100
H1903       H  0.50851687  0.80309046  0.08864491     0.38000
H1904       H  0.48641358  0.78860974  0.06538396     0.33500
C1905       C  0.66038929  0.06323777  0.76910281    -0.20300
C1906       C  0.66373754  0.09204813  0.77428774     0.36000
C1907       C  0.64146522  0.10751121  0.78626716    -0.26200
C1908       C  0.61613311  0.09439854  0.79318304     0.02400
C1909       C  0.61201484  0.06628369  0.78586651     0.27200
C1910       C  0.63406779  0.05097826  0.77374567    -0.25400
N1911       N  0.69038659  0.10502580  0.76976240    -0.82700
H1912       H  0.64456450  0.12924691  0.79179904     0.13000
C1913       C  0.59503360  0.10888939  0.81068641     0.02400
N1914       N  0.58604260  0.05277825  0.79247124    -0.81300
H1915       H  0.63135366  0.02879578  0.77011531     0.17800
C1916       C  0.57206109  0.12221865  0.79762605    -0.26200
C1917       C  0.54912728  0.13163235  0.81355996     0.35900
C1918       C  0.54913694  0.12767926  0.84298429    -0.20200
C1919       C  0.57296582  0.11592553  0.85622090    -0.25400
C1920       C  0.59577259  0.10624664  0.84030939     0.27200
H1921       H  0.57139619  0.12422818  0.77491460     0.13000
N1922       N  0.52541598  0.14461711  0.79978501    -0.82700
H1923       H  0.57327631  0.11290375  0.87878827     0.17900
N1924       N  0.61893124  0.09276781  0.85454707    -0.81300
H1925       H  0.51736567  0.13048799  0.78515399     0.33500
H1926       H  0.53253177  0.16217700  0.78883203     0.38000
H1927       H  0.62083638  0.07226771  0.84712757     0.33500
H1928       H  0.63733768  0.10346390  0.84950419     0.30100
H1929       H  0.57762113  0.04481631  0.77383177     0.33500
H1930       H  0.59052855  0.03588745  0.80590318     0.30100
H1931       H  0.69746122  0.11291350  0.78899000     0.38000
H1932       H  0.68722195  0.12192821  0.75601064     0.33500
C1933       C  0.67087857  0.23733488  0.93706632    -0.20300
C1934       C  0.66977286  0.22415434  0.91034610     0.36000
C1935       C  0.64421139  0.21352929  0.90031858    -0.26200
C1936       C  0.61954130  0.21536084  0.91633053     0.02400
C1937       C  0.61987130  0.23048739  0.94170219     0.27200
C1938       C  0.64546082  0.24139543  0.95175100    -0.25400
N1939       N  0.69441853  0.21952204  0.89364954    -0.82700
H1940       H  0.64397991  0.20224239  0.88059275     0.13000
C1941       C  0.59417890  0.19956352  0.90736135     0.02400
N1942       N  0.59435537  0.23392375  0.95754466    -0.81300
H1943       H  0.64581564  0.25189542  0.97189120     0.17800
C1944       C  0.58536737  0.17667854  0.92363743    -0.26200
C1945       C  0.56218929  0.16048213  0.91557981     0.35900
C1946       C  0.54701860  0.16769015  0.89075170    -0.20200
C1947       C  0.55602870  0.19043038  0.87439590    -0.25400
C1948       C  0.57947648  0.20638823  0.88239537     0.27200
H1949       H  0.59691876  0.17108697  0.94261310     0.13000
N1950       N  0.55504337  0.13681758  0.93283461    -0.82700
H1951       H  0.54449060  0.19586213  0.85537024     0.17900
N1952       N  0.58833277  0.22960510  0.86539856    -0.81300
H1953       H  0.54881355  0.14438990  0.95247256     0.33500
H1954       H  0.53801442  0.12591510  0.92457076     0.38000
H1955       H  0.57538968  0.23179045  0.84764370     0.33500
H1956       H  0.58557867  0.24780360  0.87725888     0.30100
H1957       H  0.59812016  0.24543028  0.97580974     0.33500
H1958       H  0.58028005  0.24581159  0.94526820     0.30100
H1959       H  0.70366713  0.23884325  0.88945268     0.38000
H1960       H  0.70858434  0.20676070  0.90488792     0.33500
C1961       C  0.32785967  0.07686689  0.76075166    -0.20300
C1962       C  0.35463564  0.06343486  0.75887905     0.36000
C1963       C  0.37792220  0.07450175  0.77307503    -0.26200
C1964       C  0.37543603  0.09886428  0.78911063     0.02400
C1965       C  0.34954471  0.11366186  0.78935876     0.27200
C1966       C  0.32601588  0.10255423  0.77513296    -0.25400
N1967       N  0.35817634  0.03767036  0.74390256    -0.82700
H1968       H  0.39794104  0.06334563  0.77244207     0.13000
C1969       C  0.39972630  0.10742823  0.80681158     0.02400
N1970       N  0.34688713  0.13910650  0.80521183    -0.81300
H1971       H  0.30578231  0.11313607  0.77678289     0.17800
C1972       C  0.41435848  0.13193299  0.80036811    -0.26200
C1973       C  0.43815759  0.13979698  0.81601168     0.35900
C1974       C  0.44707837  0.12304692  0.83922658    -0.20200
C1975       C  0.43233610  0.09857677  0.84562133    -0.25400
C1976       C  0.40890417  0.09062922  0.82959457     0.27200
H1977       H  0.40758531  0.14474233  0.78265552     0.13000
N1978       N  0.45278182  0.16462624  0.80747633    -0.82700
H1979       H  0.43916470  0.08552819  0.86314594     0.17900
N1980       N  0.39427275  0.06554657  0.83666978    -0.81300
H1981       H  0.46047158  0.16118802  0.78719461     0.33500
H1982       H  0.47035136  0.16835067  0.82010435     0.38000
H1983       H  0.40858585  0.04878465  0.83549904     0.33500
H1984       H  0.38764398  0.06719803  0.85754444     0.30100
H1985       H  0.32644662  0.14734779  0.80341523     0.33500
H1986       H  0.34997372  0.13409301  0.82644949     0.30100
H1987       H  0.36549063  0.02237760  0.75806163     0.38000
H1988       H  0.37363901  0.04054332  0.72860154     0.33500
C1989       C  0.44256703  0.16511192  0.88462567    -0.20300
C1990       C  0.43974401  0.19459886  0.88461737     0.36000
C1991       C  0.41449211  0.20698725  0.89395534    -0.26200
C1992       C  0.39206341  0.19040027  0.90280282     0.02400
C1993       C  0.39443307  0.16099468  0.90158466     0.27200
C1994       C  0.41960680  0.14868404  0.89268846    -0.25400
N1995       N  0.46269084  0.21176508  0.87552947    -0.82700
H1996       H  0.41240944  0.22958583  0.89479963     0.13000
C1997       C  0.36692189  0.20387223  0.91500958     0.02400
N1998       N  0.37175531  0.14320673  0.90980052    -0.81300
H1999       H  0.42152945  0.12611990  0.89317219     0.17800
C2000       C  0.34400352  0.21066597  0.89761579    -0.26200
C2001       C  0.31865927  0.22066625  0.90904933     0.35900
C2002       C  0.31629265  0.22427448  0.93850075    -0.20200
C2003       C  0.33995691  0.21862137  0.95564693    -0.25400
C2004       C  0.36517608  0.20821377  0.94419307     0.27200
H2005       H  0.34544904  0.20716237  0.87515389     0.13000
N2006       N  0.29509596  0.22580747  0.89072089    -0.82700
H2007       H  0.33846697  0.22115797  0.97822507     0.17900
N2008       N  0.38886127  0.20150953  0.96208575    -0.81300
H2009       H  0.30099605  0.24069420  0.87573871     0.33500
H2010       H  0.29056248  0.20720200  0.88020115     0.38000
H2011       H  0.38383362  0.20541607  0.98306084     0.33500
H2012       H  0.39275083  0.17997220  0.96081105     0.30100
H2013       H  0.35420238  0.14809261  0.89726279     0.33500
H2014       H  0.36664075  0.14735253  0.93073561     0.30100
H2015       H  0.46602327  0.20777407  0.85420310     0.38000
H2016       H  0.45729704  0.23298904  0.87707467     0.33500
C2017       C  0.49870166  0.93817676  0.84339846    -0.20300
C2018       C  0.48940196  0.95584063  0.86520434     0.36000
C2019       C  0.48845561  0.98484075  0.86131475    -0.26200
C2020       C  0.49879111  0.99735401  0.83675032     0.02400
C2021       C  0.50978962  0.97984550  0.81543874     0.27200
C2022       C  0.50902122  0.95036292  0.81859472    -0.25400
N2023       N  0.48083465  0.94423338  0.89157769    -0.82700
H2024       H  0.48060116  0.99783364  0.87826450     0.13000
C2025       C  0.50141930  0.02856803  0.83658067     0.02400
N2026       N  0.52322838  0.99181415  0.79144473    -0.81300
H2027       H  0.51726166  0.93707794  0.80209073     0.17800
C2028       C  0.51497330  0.04064512  0.85975066    -0.26200
C2029       C  0.51389677  0.06949605  0.86446177     0.35900
C2030       C  0.50122561  0.08763515  0.84442633    -0.20200
C2031       C  0.48895485  0.07586095  0.82027090    -0.25400
C2032       C  0.48770194  0.04658407  0.81685255     0.27200
H2033       H  0.52496907  0.02730392  0.87549147     0.13000
N2034       N  0.52408843  0.08009241  0.89071201    -0.82700
H2035       H  0.47876701  0.08935468  0.80483302     0.17900
N2036       N  0.47040526  0.03596755  0.79466040    -0.81300
H2037       H  0.51251977  0.07087475  0.90688973     0.33500
H2038       H  0.54510323  0.07370500  0.89313393     0.38000
H2039       H  0.48286872  0.02447996  0.78080529     0.33500
H2040       H  0.45535851  0.02274568  0.80342642     0.30100
H2041       H  0.54420123  0.98500493  0.79150975     0.33500
H2042       H  0.51354164  0.98392193  0.77339290     0.30100
H2043       H  0.49366842  0.95250834  0.90734508     0.38000
H2044       H  0.46008865  0.95071552  0.89539571     0.33500
C2045       C  0.67779044  0.06014671  0.21584809    -0.20300
C2046       C  0.67603689  0.08783075  0.20535845     0.36000
C2047       C  0.65046596  0.09824339  0.19387342    -0.26200
C2048       C  0.62627178  0.08151934  0.19236338     0.02400
C2049       C  0.62769172  0.05413263  0.20379940     0.27200
C2050       C  0.65335477  0.04373673  0.21513555    -0.25400
N2051       N  0.70067893  0.10482848  0.20447600    -0.82700
H2052       H  0.64989852  0.11915959  0.18494678     0.13000
C2053       C  0.60006447  0.09236443  0.17776518     0.02400
N2054       N  0.60316090  0.03676282  0.20341492    -0.81300
H2055       H  0.65454612  0.02231131  0.22268083     0.17800
C2056       C  0.58820227  0.07702009  0.15552386    -0.26200
C2057       C  0.56372784  0.08630206  0.14120737     0.35900
C2058       C  0.55004241  0.11142487  0.14974412    -0.20200
C2059       C  0.56231319  0.12715335  0.17140294    -0.25400
C2060       C  0.58699939  0.11791862  0.18551995     0.27200
H2061       H  0.59833970  0.05772552  0.14887750     0.13000
N2062       N  0.55362142  0.06974147  0.11815619    -0.82700
H2063       H  0.55215679  0.14654631  0.17772548     0.17900
N2064       N  0.59851665  0.13416001  0.20809820    -0.81300
H2065       H  0.56951182  0.06899027  0.10301608     0.33500
H2066       H  0.53628997  0.07922350  0.10829826     0.38000
H2067       H  0.58656455  0.15241856  0.21112525     0.33500
H2068       H  0.59685489  0.12231365  0.22655275     0.30100
H2069       H  0.60769991  0.01720246  0.21240719     0.33500
H2070       H  0.58793539  0.04627824  0.21613383     0.30100
H2071       H  0.69638183  0.12328292  0.21547160     0.38000
H2072       H  0.70448929  0.11015966  0.18348442     0.33500
C2073       C  0.66462922  0.23160637  0.05175523    -0.20300
C2074       C  0.66094064  0.23208205  0.08114602     0.36000
C2075       C  0.63696995  0.21954411  0.09275098    -0.26200
C2076       C  0.61714473  0.20643746  0.07540224     0.02400
C2077       C  0.61966802  0.20817644  0.04595294     0.27200
C2078       C  0.64367571  0.22038347  0.03441760    -0.25400
N2079       N  0.68232608  0.24356245  0.09909224    -0.82700
H2080       H  0.63456895  0.21849186  0.11538768     0.13000
C2081       C  0.59471598  0.18954989  0.08819587     0.02400
N2082       N  0.59834325  0.19654873  0.02802369    -0.81300
H2083       H  0.64679883  0.21984096  0.01187726     0.17800
C2084       C  0.57434956  0.20272041  0.10487552    -0.26200
C2085       C  0.55153966  0.18759699  0.11542087     0.35900
C2086       C  0.54942159  0.15880756  0.10937402    -0.20200
C2087       C  0.57053965  0.14533744  0.09387336    -0.25400
C2088       C  0.59315359  0.16053665  0.08316091     0.27200
H2089       H  0.57579475  0.22497915  0.10886205     0.13000
N2090       N  0.52997227  0.20141765  0.13154307    -0.82700
H2091       H  0.56892757  0.12325747  0.08916722     0.17900
N2092       N  0.61436818  0.14658219  0.06689853    -0.81300
H2093       H  0.53448847  0.22265450  0.13388555     0.33500
H2094       H  0.53027601  0.19261132  0.15171875     0.38000
H2095       H  0.62325528  0.13060340  0.07929055     0.33500
H2096       H  0.60453179  0.13732475  0.04960976     0.30100
H2097       H  0.60365066  0.19910393  0.00685640     0.33500
H2098       H  0.57973671  0.20801423  0.03120721     0.30100
H2099       H  0.70042157  0.23101912  0.09720926     0.38000
H2100       H  0.67622383  0.24236554  0.12016443     0.33500
C2101       C  0.32976549  0.05638700  0.22151650    -0.20300
C2102       C  0.35577812  0.05876179  0.23558235     0.36000
C2103       C  0.37725333  0.07473564  0.22317903    -0.26200
C2104       C  0.37260702  0.08936364  0.19773980     0.02400
C2105       C  0.34531625  0.08960041  0.18570836     0.27200
C2106       C  0.32444448  0.07257881  0.19732831    -0.25400
N2107       N  0.36087636  0.04358665  0.26130140    -0.82700
H2108       H  0.39806421  0.07451760  0.23262012     0.13000
C2109       C  0.39696335  0.10106195  0.18198032     0.02400
N2110       N  0.33921682  0.10642644  0.16119515    -0.81300
H2111       H  0.30400755  0.07145060  0.18711241     0.17800
C2112       C  0.40027919  0.09363777  0.15361966    -0.26200
C2113       C  0.42348260  0.10246125  0.13801706     0.35900
C2114       C  0.44465887  0.11820712  0.15108228    -0.20200
C2115       C  0.44149567  0.12584438  0.17939110    -0.25400
C2116       C  0.41761203  0.11787164  0.19487491     0.27200
H2117       H  0.38500235  0.08027574  0.14351818     0.13000
N2118       N  0.42564403  0.09468261  0.10910054    -0.82700
H2119       H  0.45779460  0.13804954  0.18940712     0.17900
N2120       N  0.41429268  0.12672927  0.22352437    -0.81300
H2121       H  0.42514161  0.07283789  0.10799278     0.33500
H2122       H  0.40760824  0.10232132  0.09879738     0.38000
H2123       H  0.43136394  0.13888768  0.22981713     0.33500
H2124       H  0.39641934  0.13970169  0.22433113     0.30100
H2125       H  0.31823430  0.10409951  0.15489076     0.33500
H2126       H  0.34154703  0.12740259  0.16684981     0.30100
H2127       H  0.34748574  0.05202828  0.27654927     0.38000
H2128       H  0.38142854  0.04689254  0.26846335     0.33500
C2129       C  0.44595148  0.16104961  0.10539364    -0.20300
C2130       C  0.43272984  0.15658072  0.07913378     0.36000
C2131       C  0.40986768  0.17370041  0.07075277    -0.26200
C2132       C  0.39953757  0.19503027  0.08824724     0.02400
C2133       C  0.41242918  0.19935249  0.11462696     0.27200
C2134       C  0.43555678  0.18238511  0.12288853    -0.25400
N2135       N  0.44243504  0.13477273  0.06086217    -0.82700
H2136       H  0.39970596  0.16992228  0.05068066     0.13000
C2137       C  0.37338681  0.21043354  0.07977892     0.02400
N2138       N  0.40196034  0.22097514  0.13284997    -0.81300
H2139       H  0.44580168  0.18600397  0.14294429     0.17800
C2140       C  0.34836111  0.20451497  0.09391803    -0.26200
C2141       C  0.32231621  0.21408529  0.08340365     0.35900
C2142       C  0.32100195  0.23015487  0.05842590    -0.20200
C2143       C  0.34624028  0.23802233  0.04546852    -0.25400
C2144       C  0.37245175  0.22840499  0.05615315     0.27200
H2145       H  0.34885379  0.19091794  0.11224453     0.13000
N2146       N  0.29695454  0.20597088  0.09724993    -0.82700
H2147       H  0.34556124  0.25009299  0.02611680     0.17900
N2148       N  0.39807322  0.23651028  0.04281532    -0.81300
H2149       H  0.29780568  0.21318658  0.11796039     0.33500
H2150       H  0.29649298  0.18409175  0.09788119     0.38000
H2151       H  0.39721918  0.23034488  0.02181155     0.33500
H2152       H  0.39906906  0.25835902  0.04321157     0.30100
H2153       H  0.41367637  0.22142258  0.15152125     0.33500
H2154       H  0.40509038  0.24017332  0.12274444     0.30100
H2155       H  0.44799538  0.14394057  0.04170456     0.38000
H2156       H  0.42557028  0.12152493  0.05671437     0.33500
C2157       C  0.49924467  0.93141034  0.15356901    -0.20300
C2158       C  0.49002083  0.94439072  0.17857293     0.36000
C2159       C  0.48942305  0.97390908  0.18033790    -0.26200
C2160       C  0.49916519  0.99050736  0.15798624     0.02400
C2161       C  0.51160956  0.97727488  0.13457217     0.27200
C2162       C  0.51036009  0.94816808  0.13209978    -0.25400
N2163       N  0.48156974  0.92794063  0.20219549    -0.82700
H2164       H  0.48075732  0.98383754  0.19887868     0.13000
C2165       C  0.49481354  0.02147493  0.15767692     0.02400
N2166       N  0.52500914  0.99362755  0.11306439    -0.81300
H2167       H  0.51803771  0.93838412  0.11304766     0.17800
C2168       C  0.50527800  0.03842454  0.17941091    -0.26200
C2169       C  0.50466407  0.06790465  0.17704720     0.35900
C2170       C  0.49450303  0.08045957  0.15182821    -0.20200
C2171       C  0.48320001  0.06331932  0.13086527    -0.25400
C2172       C  0.48185170  0.03432742  0.13412227     0.27200
H2173       H  0.51450726  0.02873372  0.19798838     0.13000
N2174       N  0.51421455  0.08416443  0.20048533    -0.82700
H2175       H  0.47604996  0.07266107  0.11127595     0.17900
N2176       N  0.46803759  0.01768484  0.11313644    -0.81300
H2177       H  0.53578343  0.08022538  0.20312011     0.33500
H2178       H  0.51151865  0.10557402  0.19666628     0.38000
H2179       H  0.45080173  0.00820083  0.12273707     0.33500
H2180       H  0.45990107  0.03033251  0.09695282     0.30100
H2181       H  0.54224638  0.00351877  0.12231369     0.33500
H2182       H  0.53308861  0.98071835  0.09725997     0.30100
H2183       H  0.46125320  0.93439955  0.20778081     0.38000
H2184       H  0.49489045  0.93271084  0.21903435     0.33500
C2185       C  0.50008099  0.16069252  0.07217774    -0.20300
C2186       C  0.51007512  0.14099944  0.05243162     0.36000
C2187       C  0.50992904  0.14779850  0.02380004    -0.26200
C2188       C  0.49753270  0.17274079  0.01376895     0.02400
C2189       C  0.48698052  0.19247857  0.03348450     0.27200
C2190       C  0.48969881  0.18673480  0.06254483    -0.25400
N2191       N  0.51883032  0.11341986  0.06144026    -0.82700
H2192       H  0.51761692  0.13246673  0.00884466     0.13000
C2193       C  0.49258189  0.17438188  0.98279601     0.02400
N2194       N  0.47199975  0.21748886  0.02503297    -0.81300
H2195       H  0.48164664  0.20175919  0.07759187     0.17800
C2196       C  0.47709944  0.15264726  0.97081510    -0.26200
C2197       C  0.47778982  0.14753295  0.94193882     0.35900
C2198       C  0.49163692  0.16625321  0.92365853    -0.20200
C2199       C  0.50508318  0.18965335  0.93537089    -0.25400
C2200       C  0.50698006  0.19301389  0.96475791     0.27200
H2201       H  0.46658353  0.13776077  0.98436424     0.13000
N2202       N  0.46648821  0.12182331  0.93164031    -0.82700
H2203       H  0.51595116  0.20420359  0.92181356     0.17900
N2204       N  0.52549338  0.21387927  0.97559102    -0.81300
H2205       H  0.47757154  0.10527400  0.94121824     0.33500
H2206       H  0.44552024  0.12061811  0.93812668     0.38000
H2207       H  0.51400071  0.22775709  0.98808075     0.33500
H2208       H  0.54074256  0.20393919  0.98819800     0.30100
H2209       H  0.45180758  0.21644955  0.03361626     0.33500
H2210       H  0.46899880  0.21821827  0.00329536     0.30100
H2211       H  0.50117821  0.10341956  0.06967134     0.38000
H2212       H  0.52554784  0.10140774  0.04435807     0.33500
C2213       C  0.88263746  0.83676546  0.55555083    -0.20300
C2214       C  0.88247504  0.80715072  0.55479227     0.36000
C2215       C  0.89252367  0.79145445  0.57797886    -0.26200
C2216       C  0.90258231  0.80489151  0.60209009     0.02400
C2217       C  0.90052399  0.83428891  0.60376218     0.27200
C2218       C  0.89054305  0.84988749  0.58069984    -0.25400
N2219       N  0.87252658  0.79297127  0.53026066    -0.82700
H2220       H  0.89378773  0.76883842  0.57657463     0.13000
C2221       C  0.91915070  0.78906101  0.62360635     0.02400
N2222       N  0.90964278  0.84845667  0.62863812    -0.81300
H2223       H  0.89057735  0.87240821  0.58221928     0.17800
C2224       C  0.94748969  0.79598622  0.62675469    -0.26200
C2225       C  0.96340467  0.78599631  0.64949560     0.35900
C2226       C  0.95152467  0.76715691  0.66902738    -0.20200
C2227       C  0.92363675  0.75831387  0.66464892    -0.25400
C2228       C  0.90708539  0.76958319  0.64231782     0.27200
H2229       H  0.95688120  0.81088834  0.61240037     0.13000
N2230       N  0.99102980  0.79694522  0.65386113    -0.82700
H2231       H  0.91397464  0.74474387  0.68007681     0.17900
N2232       N  0.87784288  0.76260102  0.63952762    -0.81300
H2233       H  0.98900644  0.81851169  0.65710774     0.33500
H2234       H  0.00226914  0.79431268  0.63522472     0.38000
H2235       H  0.87211900  0.74830126  0.65514820     0.33500
H2236       H  0.86599649  0.78084314  0.64303185     0.30100
H2237       H  0.92565756  0.86222781  0.62302611     0.33500
H2238       H  0.89267472  0.86033044  0.63620558     0.30100
H2239       H  0.88870697  0.77986821  0.52303823     0.38000
H2240       H  0.85571927  0.78033690  0.53622704     0.33500
C2241       C  0.84204301  0.88550847  0.55357442    -0.20300
C2242       C  0.84866582  0.90923677  0.56967483     0.36000
C2243       C  0.83205252  0.91625399  0.59305059    -0.26200
C2244       C  0.80893853  0.89986209  0.60080751     0.02400
C2245       C  0.80255151  0.87572052  0.58491956     0.27200
C2246       C  0.81915276  0.86894822  0.56148934    -0.25400
N2247       N  0.87249811  0.92593376  0.56259034    -0.82700
H2248       H  0.83723819  0.93460640  0.60527212     0.13000
C2249       C  0.79197990  0.90870563  0.62546723     0.02400
N2250       N  0.77939147  0.85778806  0.59168218    -0.81300
H2251       H  0.81408975  0.85058001  0.54923824     0.17800
C2252       C  0.76944172  0.92754561  0.62155673    -0.26200
C2253       C  0.75504165  0.93913512  0.64468007     0.35900
C2254       C  0.76361483  0.93189239  0.67240824    -0.20200
C2255       C  0.78486239  0.91127308  0.67601340    -0.25400
C2256       C  0.79920842  0.89977428  0.65283503     0.27200
H2257       H  0.76372989  0.93395314  0.60036497     0.13000
N2258       N  0.73253831  0.95906463  0.64006365    -0.82700
H2259       H  0.79177369  0.90549666  0.69702470     0.17900
N2260       N  0.82208422  0.88017598  0.65699846    -0.81300
H2261       H  0.72919665  0.96241674  0.61854648     0.33500
H2262       H  0.71409801  0.95025909  0.64793013     0.38000
H2263       H  0.82522302  0.87624323  0.67843667     0.33500
H2264       H  0.81619140  0.86119609  0.64796711     0.30100
H2265       H  0.78781305  0.83812397  0.59698745     0.33500
H2266       H  0.76837226  0.86482754  0.60926992     0.30100
H2267       H  0.86537816  0.94645218  0.55907388     0.38000
H2268       H  0.88611814  0.92611379  0.57993540     0.33500
C2269       C  0.77762019  0.95371403  0.33518485    -0.20300
C2270       C  0.77136481  0.92545101  0.34067929     0.36000
C2271       C  0.78279480  0.91211237  0.36468949    -0.26200
C2272       C  0.80049060  0.92660989  0.38320637     0.02400
C2273       C  0.80511559  0.95540591  0.37880105     0.27200
C2274       C  0.79396401  0.96854164  0.35465877    -0.25400
N2275       N  0.75525238  0.90968530  0.32089329    -0.82700
H2276       H  0.77908776  0.89000733  0.36805901     0.13000
C2277       C  0.81598612  0.91125974  0.40582168     0.02400
N2278       N  0.82190830  0.97091775  0.39843780    -0.81300
H2279       H  0.79908590  0.99019069  0.35036040     0.17800
C2280       C  0.84551348  0.90995258  0.40481548    -0.26200
C2281       C  0.86138294  0.89799790  0.42689691     0.35900
C2282       C  0.84747806  0.88699619  0.45064120    -0.20200
C2283       C  0.81779917  0.88692336  0.45076016    -0.25400
C2284       C  0.80192191  0.89897929  0.42866925     0.27200
H2285       H  0.85638324  0.91895401  0.38698727     0.13000
N2286       N  0.89146097  0.89784562  0.42514423    -0.82700
H2287       H  0.80697096  0.87823629  0.46876643     0.17900
N2288       N  0.77166242  0.89949753  0.42972376    -0.81300
H2289       H  0.89702531  0.88617999  0.40742067     0.33500
H2290       H  0.89797048  0.91831004  0.42124244     0.38000
H2291       H  0.76460153  0.88942760  0.44790507     0.33500
H2292       H  0.76516112  0.92042741  0.43121781     0.30100
H2293       H  0.82341507  0.99183783  0.39208139     0.33500
H2294       H  0.81131675  0.97099598  0.41767632     0.30100
H2295       H  0.73789314  0.90147967  0.33142917     0.38000
H2296       H  0.76774441  0.89291487  0.31400326     0.33500
C2297       C  0.89033671  0.83964154  0.45272787    -0.20300
C2298       C  0.87124165  0.82071358  0.44053114     0.36000
C2299       C  0.87939300  0.80512242  0.41677531    -0.26200
C2300       C  0.90645746  0.80770204  0.40538562     0.02400
C2301       C  0.92542994  0.82671058  0.41759713     0.27200
C2302       C  0.91728369  0.84240256  0.44112247    -0.25400
N2303       N  0.84367629  0.81741087  0.45240611    -0.82700
H2304       H  0.86471797  0.79074425  0.40722538     0.13000
C2305       C  0.91429369  0.79186539  0.37967332     0.02400
N2306       N  0.95273988  0.83072741  0.40562761    -0.81300
H2307       H  0.93198932  0.85702428  0.45026098     0.17800
C2308       C  0.89965262  0.79719253  0.35442701    -0.26200
C2309       C  0.91011999  0.78723645  0.32862028     0.35900
C2310       C  0.93556791  0.77177555  0.32826145    -0.20200
C2311       C  0.94868209  0.76421134  0.35370722    -0.25400
C2312       C  0.93796195  0.77379276  0.37943421     0.27200
H2313       H  0.88112234  0.81066248  0.35464584     0.13000
N2314       N  0.89626730  0.79449849  0.30259678    -0.82700
H2315       H  0.96825304  0.75227599  0.35349968     0.17900
N2316       N  0.95160604  0.76589974  0.40525222    -0.81300
H2317       H  0.87803775  0.80636130  0.30641115     0.33500
H2318       H  0.88973099  0.77587892  0.29325436     0.38000
H2319       H  0.95146916  0.74405702  0.40676394     0.33500
H2320       H  0.97258213  0.77215180  0.40422587     0.30100
H2321       H  0.95442476  0.85180591  0.39992050     0.33500
H2322       H  0.96784766  0.82645378  0.42119602     0.30100
H2323       H  0.83210707  0.80286635  0.44090004     0.38000
H2324       H  0.84625515  0.80904444  0.47263148     0.33500
C2325       C  0.93450733  0.22937202  0.67013282    -0.20300
C2326       C  0.94411699  0.23722436  0.64332373     0.36000
C2327       C  0.93186346  0.22506755  0.61935856    -0.26200
C2328       C  0.91044406  0.20519814  0.62211568     0.02400
C2329       C  0.89918318  0.19941187  0.64885731     0.27200
C2330       C  0.91140173  0.21156994  0.67267110    -0.25400
N2331       N  0.96759546  0.25576379  0.64075514    -0.82700
H2332       H  0.94034488  0.22952572  0.59871647     0.13000
C2333       C  0.90265547  0.18774382  0.59771665     0.02400
N2334       N  0.87652383  0.17989525  0.65174709    -0.81300
H2335       H  0.90439331  0.20536291  0.69344407     0.17800
C2336       C  0.90886601  0.15896068  0.59883180    -0.26200
C2337       C  0.90213922  0.14139258  0.57634627     0.35900
C2338       C  0.88874493  0.15268293  0.55233737    -0.20200
C2339       C  0.88292685  0.18157966  0.55099413    -0.25400
C2340       C  0.88970951  0.19927103  0.57354125     0.27200
H2341       H  0.91930607  0.15012431  0.61722261     0.13000
N2342       N  0.90961930  0.11232379  0.57777410    -0.82700
H2343       H  0.87286054  0.19025687  0.53233209     0.17900
N2344       N  0.88338125  0.22874151  0.57211849    -0.81300
H2345       H  0.90018798  0.10384499  0.59567032     0.33500
H2346       H  0.93142683  0.11085871  0.58075705     0.38000
H2347       H  0.87392657  0.23386619  0.55283193     0.33500
H2348       H  0.86849296  0.23318207  0.58766191     0.30100
H2349       H  0.87098836  0.17755697  0.67288568     0.33500
H2350       H  0.85891832  0.18848632  0.64142868     0.30100
H2351       H  0.96132009  0.27518615  0.64879047     0.38000
H2352       H  0.97248036  0.25901208  0.61957436     0.33500
C2353       C  0.75872469  0.07216440  0.67247631    -0.20300
C2354       C  0.75309734  0.06271746  0.64483161     0.36000
C2355       C  0.76840779  0.07370095  0.62211629    -0.26200
C2356       C  0.78919144  0.09386178  0.62630733     0.02400
C2357       C  0.79377805  0.10455371  0.65347875     0.27200
C2358       C  0.77818720  0.09393528  0.67622038    -0.25400
N2359       N  0.73284949  0.04108025  0.64001743    -0.82700
H2360       H  0.76502874  0.06560732  0.60112388     0.13000
C2361       C  0.80807547  0.10093256  0.60258073     0.02400
N2362       N  0.81506144  0.12525534  0.65803735    -0.81300
H2363       H  0.78285157  0.10129027  0.69723620     0.17800
C2364       C  0.80277432  0.12477964  0.58595933    -0.26200
C2365       C  0.81928060  0.13041195  0.56201416     0.35900
C2366       C  0.84172533  0.11209859  0.55499138    -0.20200
C2367       C  0.84760434  0.08899001  0.57245391    -0.25400
C2368       C  0.83079509  0.08298446  0.59586880     0.27200
H2369       H  0.78532277  0.13855964  0.59127870     0.13000
N2370       N  0.81331427  0.15454033  0.54471457    -0.82700
H2371       H  0.86533327  0.07544014  0.56790054     0.17900
N2372       N  0.83630249  0.05835173  0.61258861    -0.81300
H2373       H  0.79636720  0.16602943  0.55287565     0.33500
H2374       H  0.80694179  0.14740417  0.52494982     0.38000
H2375       H  0.85341015  0.04700557  0.60454996     0.33500
H2376       H  0.84223793  0.06495488  0.63263606     0.30100
H2377       H  0.81583683  0.13092886  0.67924126     0.33500
H2378       H  0.83460031  0.11606596  0.65345099     0.30100
H2379       H  0.71306110  0.04910449  0.64555007     0.38000
H2380       H  0.73174691  0.03606959  0.61865630     0.33500
C2381       C  0.89109273  0.14506011  0.45059605    -0.20300
C2382       C  0.90992363  0.13238346  0.43170394     0.36000
C2383       C  0.91859943  0.14725895  0.40779386    -0.26200
C2384       C  0.90925740  0.17488986  0.40302092     0.02400
C2385       C  0.89066806  0.18762195  0.42213835     0.27200
C2386       C  0.88156926  0.17255825  0.44567533    -0.25400
N2387       N  0.92090284  0.10486381  0.43721133    -0.82700
H2388       H  0.93315018  0.13747380  0.39323273     0.13000
C2389       C  0.91937382  0.19022429  0.37805438     0.02400
N2390       N  0.88105341  0.21582785  0.41766805    -0.81300
H2391       H  0.86739035  0.18251227  0.46049277     0.17800
C2392       C  0.91097396  0.18142219  0.35128570    -0.26200
C2393       C  0.92226609  0.19375648  0.32712108     0.35900
C2394       C  0.94173781  0.21567379  0.32969509    -0.20200
C2395       C  0.94916307  0.22537409  0.35642683    -0.25400
C2396       C  0.93844971  0.21245542  0.38066931     0.27200
H2397       H  0.89634442  0.16428724  0.34916859     0.13000
N2398       N  0.91474400  0.18335941  0.29989599    -0.82700
H2399       H  0.96468441  0.24168908  0.35851264     0.17900
N2400       N  0.94817514  0.22082023  0.40786583    -0.81300
H2401       H  0.92013512  0.16208199  0.29914239     0.33500
H2402       H  0.89288180  0.18520648  0.29758545     0.38000
H2403       H  0.97007633  0.21827844  0.40838208     0.33500
H2404       H  0.94355803  0.24212383  0.41026221     0.30100
H2405       H  0.85904543  0.21575976  0.41660682     0.33500
H2406       H  0.88692292  0.22761762  0.43517636     0.30100
H2407       H  0.94280473  0.10623856  0.43906208     0.38000
H2408       H  0.91651049  0.09247829  0.41970437     0.33500
C2409       C  0.84497503  0.10424910  0.45096023    -0.20300
C2410       C  0.85019878  0.07884908  0.43680296     0.36000
C2411       C  0.83505648  0.07262172  0.41206811    -0.26200
C2412       C  0.81486031  0.09146095  0.40088781     0.02400
C2413       C  0.80961719  0.11678191  0.41514321     0.27200
C2414       C  0.82470522  0.12298797  0.43987841    -0.25400
N2415       N  0.87067707  0.05924836  0.44753267    -0.82700
H2416       H  0.83922517  0.05301004  0.40140651     0.13000
C2417       C  0.79927850  0.08399799  0.37455318     0.02400
N2418       N  0.78849436  0.13595476  0.40491963    -0.81300
H2419       H  0.82037385  0.14248435  0.45069290     0.17800
C2420       C  0.78228368  0.06016941  0.37446890    -0.26200
C2421       C  0.76944890  0.05061348  0.34954575     0.35900
C2422       C  0.77428832  0.06468702  0.32374309    -0.20200
C2423       C  0.78972815  0.08967011  0.32421497    -0.25400
C2424       C  0.80233314  0.09940927  0.34930316     0.27200
H2425       H  0.77948941  0.04862570  0.39391973     0.13000
N2426       N  0.75218085  0.02609363  0.35018852    -0.82700
H2427       H  0.79376296  0.10053029  0.30461213     0.17900
N2428       N  0.81928229  0.12415759  0.34894749    -0.81300
H2429       H  0.75093752  0.01802534  0.37062477     0.33500
H2430       H  0.73175391  0.03226008  0.34437352     0.38000
H2431       H  0.84004281  0.11810332  0.35357330     0.33500
H2432       H  0.81946402  0.13306027  0.32881621     0.30100
H2433       H  0.77354973  0.13877564  0.42077471     0.33500
H2434       H  0.79807730  0.15521850  0.40123066     0.30100
H2435       H  0.86045986  0.04038379  0.45154249     0.38000
H2436       H  0.88547936  0.05542653  0.43177573     0.33500
C2437       C  0.84409503  0.07130955  0.50660741    -0.20300
C2438       C  0.81896313  0.05906337  0.49701769     0.36000
C2439       C  0.81651307  0.02955135  0.49705673    -0.26200
C2440       C  0.83850817  0.01231257  0.50757457     0.02400
C2441       C  0.86245960  0.02504718  0.51953774     0.27200
C2442       C  0.86553293  0.05400633  0.51753861    -0.25400
N2443       N  0.79636031  0.07636471  0.48664125    -0.82700
H2444       H  0.79795199  0.02014964  0.48794315     0.13000
C2445       C  0.83893690  0.98132967  0.50311210     0.02400
N2446       N  0.88405684  0.00829638  0.53302634    -0.81300
H2447       H  0.88505948  0.06328036  0.52455669     0.17800
C2448       C  0.86322970  0.96979033  0.49104511    -0.26200
C2449       C  0.86844408  0.94103875  0.49130953     0.35900
C2450       C  0.84786171  0.92244706  0.50135351    -0.20200
C2451       C  0.82214238  0.93367973  0.51112763    -0.25400
C2452       C  0.81772077  0.96308434  0.51270747     0.27200
H2453       H  0.87943212  0.98345756  0.48298916     0.13000
N2454       N  0.89569864  0.93107891  0.48303803    -0.82700
H2455       H  0.80606128  0.91959247  0.51856169     0.17900
N2456       N  0.79233122  0.97433684  0.52472905    -0.81300
H2457       H  0.89977204  0.93906453  0.46303662     0.33500
H2458       H  0.91048533  0.94000977  0.49657658     0.38000
H2459       H  0.77897895  0.95815553  0.53079832     0.33500
H2460       H  0.79791321  0.98490372  0.54310356     0.30100
H2461       H  0.90036917  0.02084307  0.54045904     0.33500
H2462       H  0.87504460  0.99889417  0.55067124     0.30100
H2463       H  0.79204276  0.07044731  0.46593246     0.38000
H2464       H  0.77851522  0.07222933  0.49870431     0.33500
C2465       C  0.15611211  0.10272686  0.54924627    -0.20300
C2466       C  0.14750581  0.08086923  0.56743504     0.36000
C2467       C  0.16350848  0.07474426  0.59174979    -0.26200
C2468       C  0.18799715  0.08968217  0.59830640     0.02400
C2469       C  0.19647069  0.11142853  0.58014150     0.27200
C2470       C  0.18051298  0.11774462  0.55597736    -0.25400
N2471       N  0.12338904  0.06390662  0.56151860    -0.82700
H2472       H  0.15688447  0.05798977  0.60558530     0.13000
C2473       C  0.20380838  0.08284883  0.62469456     0.02400
N2474       N  0.22105257  0.12756887  0.58591787    -0.81300
H2475       H  0.18742383  0.13431283  0.54205246     0.17800
C2476       C  0.22900060  0.06714206  0.62362661    -0.26200
C2477       C  0.24297104  0.05828381  0.64850542     0.35900
C2478       C  0.23144729  0.06522250  0.67499560    -0.20200
C2479       C  0.20708625  0.08233831  0.67581311    -0.25400
C2480       C  0.19310457  0.09100845  0.65102023     0.27200
H2481       H  0.23732085  0.06111780  0.60332178     0.13000
N2482       N  0.26845572  0.04183094  0.64697452    -0.82700
H2483       H  0.19781192  0.08757743  0.69592304     0.17900
N2484       N  0.16743251  0.10721887  0.65245034    -0.81300
H2485       H  0.27406790  0.03843609  0.62601363     0.33500
H2486       H  0.28459107  0.05355936  0.65599379     0.38000
H2487       H  0.16196971  0.11104112  0.67337625     0.33500
H2488       H  0.17123946  0.12671035  0.64320956     0.30100
H2489       H  0.23849902  0.11402352  0.58667404     0.33500
H2490       H  0.21870246  0.13678109  0.60568682     0.30100
H2491       H  0.11319919  0.07019346  0.54300346     0.38000
H2492       H  0.10901028  0.06684207  0.57784971     0.33500
C2493       C  0.05730574  0.22557417  0.66156468    -0.20300
C2494       C  0.08663721  0.22106223  0.65854697     0.36000
C2495       C  0.09687366  0.20651865  0.63481729    -0.26200
C2496       C  0.07860274  0.19714334  0.61349510     0.02400
C2497       C  0.04963015  0.20379167  0.61561841     0.27200
C2498       C  0.03934006  0.21765596  0.63947158    -0.25400
N2499       N  0.10576370  0.22957224  0.68032913    -0.82700
H2500       H  0.11913733  0.20147739  0.63357569     0.13000
C2501       C  0.08980709  0.17945367  0.58992194     0.02400
N2502       N  0.03035541  0.19614627  0.59379177    -0.81300
H2503       H  0.01680929  0.22107776  0.64127570     0.17800
C2504       C  0.07630696  0.15424365  0.58298269    -0.26200
C2505       C  0.08590639  0.13733417  0.56077181     0.35900
C2506       C  0.11001202  0.14502549  0.54567963    -0.20200
C2507       C  0.12398739  0.16970204  0.55287250    -0.25400
C2508       C  0.11398145  0.18719369  0.57451310     0.27200
H2509       H  0.05805992  0.14764198  0.59477102     0.13000
N2510       N  0.07065348  0.11283734  0.55303977    -0.82700
H2511       H  0.14224795  0.17582491  0.54080502     0.17900
N2512       N  0.12784509  0.21314112  0.58032910    -0.81300
H2513       H  0.06942379  0.09984906  0.57072989     0.33500
H2514       H  0.05013702  0.11904896  0.54757614     0.38000
H2515       H  0.14526963  0.21565973  0.56721763     0.33500
H2516       H  0.11369052  0.22940092  0.57543390     0.30100
H2517       H  0.01507476  0.18318299  0.60254837     0.33500
H2518       H  0.02022094  0.21438115  0.58656663     0.30100
H2519       H  0.10532804  0.25145684  0.68084219     0.50000
H2520       H  0.12644333  0.22372835  0.67536345     0.33500
C2521       C  0.04985470  0.24283978  0.34594098    -0.20300
C2522       C  0.07938184  0.24519165  0.34927592     0.36000
C2523       C  0.09376818  0.22883359  0.36985053    -0.26200
C2524       C  0.07906227  0.21052738  0.38765710     0.02400
C2525       C  0.04935959  0.21179749  0.38729116     0.27200
C2526       C  0.03511814  0.22759419  0.36647427    -0.25400
N2527       N  0.09504792  0.26274717  0.33068890    -0.82700
H2528       H  0.11657700  0.22920058  0.37072523     0.13000
C2529       C  0.09442977  0.18923026  0.40557756     0.02400
N2530       N  0.03354957  0.19632496  0.40758650    -0.81300
H2531       H  0.01246566  0.22579238  0.36482010     0.17800
C2532       C  0.11422906  0.19759974  0.42583402    -0.26200
C2533       C  0.12607721  0.17811686  0.44510823     0.35900
C2534       C  0.11842947  0.14963109  0.44419119    -0.20200
C2535       C  0.10005424  0.14106884  0.42276272    -0.25400
C2536       C  0.08843773  0.16039010  0.40334501     0.27200
H2537       H  0.11949768  0.21953116  0.42760920     0.13000
N2538       N  0.14490820  0.18753519  0.46660906    -0.82700
H2539       H  0.09329774  0.11962045  0.42183311     0.17900
N2540       N  0.07012426  0.15064148  0.38154081    -0.81300
H2541       H  0.16206778  0.19698379  0.45683933     0.33500
H2542       H  0.13438597  0.20275031  0.47846442     0.38000
H2543       H  0.08135315  0.13610133  0.36947617     0.33500
H2544       H  0.05336917  0.14019678  0.39098699     0.30100
H2545       H  0.02118985  0.21054576  0.41891058     0.33500
H2546       H  0.01999645  0.18295708  0.39681254     0.30100
H2547       H  0.11021519  0.25048777  0.32053527     0.38000
H2548       H  0.10567211  0.27741065  0.34293114     0.33500
C2549       C  0.23709365  0.02619776  0.34170555    -0.20300
C2550       C  0.21754291  0.01458786  0.36041063     0.36000
C2551       C  0.20695485  0.03069488  0.38247976    -0.26200
C2552       C  0.21493822  0.05864305  0.38579099     0.02400
C2553       C  0.23714476  0.06924633  0.36933934     0.27200
C2554       C  0.24852093  0.05252627  0.34771642    -0.25400
N2555       N  0.20718419  0.98694907  0.35612937    -0.82700
H2556       H  0.19083893  0.02196076  0.39589741     0.13000
C2557       C  0.19786180  0.07653716  0.40486528     0.02400
N2558       N  0.24656024  0.09746493  0.37318681    -0.81300
H2559       H  0.26373826  0.06148384  0.33343665     0.17800
C2560       C  0.21046783  0.08945285  0.42803162    -0.26200
C2561       C  0.19390242  0.10265787  0.44870644     0.35900
C2562       C  0.16413362  0.10252712  0.44635893    -0.20200
C2563       C  0.15179291  0.09093962  0.42232797    -0.25400
C2564       C  0.16832578  0.07849164  0.40129437     0.27200
H2565       H  0.23314033  0.08815337  0.43062528     0.13000
N2566       N  0.20708449  0.11520208  0.47275558    -0.82700
H2567       H  0.12918011  0.08987404  0.42071037     0.17900
N2568       N  0.15519036  0.06684815  0.37672072    -0.81300
H2569       H  0.22901488  0.11329477  0.47151287     0.33500
H2570       H  0.20231805  0.13662378  0.47216240     0.38000
H2571       H  0.13333600  0.06978291  0.37737651     0.33500
H2572       H  0.16230143  0.07807573  0.35926247     0.30100
H2573       H  0.26280310  0.10202430  0.35916211     0.33500
H2574       H  0.22977588  0.11095063  0.36808349     0.30100
H2575       H  0.21104019  0.97546563  0.37455159     0.38000
H2576       H  0.18535704  0.98827511  0.35322105     0.33500
C2577       C  0.92669073  0.14457377  0.50272574    -0.20300
C2578       C  0.94515886  0.12240853  0.51008478     0.36000
C2579       C  0.97437308  0.12594965  0.50864851    -0.26200
C2580       C  0.98618956  0.15081808  0.49833623     0.02400
C2581       C  0.96771087  0.17303531  0.49055366     0.27200
C2582       C  0.93818917  0.16993909  0.49329602    -0.25400
N2583       N  0.93422637  0.09551926  0.51742253    -0.82700
H2584       H  0.98798520  0.10850009  0.51459228     0.13000
C2585       C  0.01749147  0.15107390  0.49340848     0.02400
N2586       N  0.97861201  0.19812755  0.47845689    -0.81300
H2587       H  0.92423864  0.18697358  0.48701062     0.17800
C2588       C  0.02963122  0.12770970  0.48017995    -0.26200
C2589       C  0.05883228  0.12339871  0.47963086     0.35900
C2590       C  0.07714435  0.14358718  0.49086376    -0.20200
C2591       C  0.06530176  0.16821473  0.50210354    -0.25400
C2592       C  0.03570666  0.17181464  0.50405578     0.27200
H2593       H  0.01621013  0.11160897  0.47160428     0.13000
N2594       N  0.06964370  0.09727259  0.46950918    -0.82700
H2595       H  0.07899022  0.18396468  0.51085503     0.17900
N2596       N  0.02447765  0.19571684  0.51831052    -0.81300
H2597       H  0.06218287  0.09444059  0.44901212     0.33500
H2598       H  0.06111623  0.08140980  0.48195354     0.38000
H2599       H  0.03307500  0.19585039  0.53855574     0.33500
H2600       H  0.03147049  0.21362201  0.50784989     0.30100
H2601       H  0.97181688  0.21499578  0.49071603     0.33500
H2602       H  0.96978813  0.20053522  0.45840938     0.30100
H2603       H  0.94280458  0.08949808  0.53683002     0.38000
H2604       H  0.94129299  0.08110276  0.50247389     0.33500
C2605       C  0.10684929  0.83409399  0.55679730    -0.20300
C2606       C  0.12293993  0.81027022  0.56541836     0.36000
C2607       C  0.11296905  0.79319025  0.58720596    -0.26200
C2608       C  0.08674204  0.79834993  0.59965329     0.02400
C2609       C  0.07064986  0.82196825  0.59108321     0.27200
C2610       C  0.08098669  0.83971436  0.56990608    -0.25400
N2611       N  0.14890858  0.80218614  0.55206774    -0.82700
H2612       H  0.12548050  0.77523851  0.59397964     0.13000
C2613       C  0.07734402  0.78036185  0.62330496     0.02400
N2614       N  0.04395259  0.82789550  0.60406362    -0.81300
H2615       H  0.06857220  0.85772122  0.56311788     0.17800
C2616       C  0.09248933  0.78119360  0.64859585    -0.26200
C2617       C  0.08100977  0.77040138  0.67345731     0.35900
C2618       C  0.05393092  0.75851466  0.67293682    -0.20200
C2619       C  0.04058714  0.75407711  0.64701484    -0.25400
C2620       C  0.05204856  0.76512298  0.62201320     0.27200
H2621       H  0.11232419  0.79219207  0.64936278     0.13000
N2622       N  0.09586376  0.77319134  0.69966781    -0.82700
H2623       H  0.02000158  0.74450218  0.64662232     0.17900
N2624       N  0.03729067  0.76259008  0.59570374    -0.81300
H2625       H  0.11525058  0.78290266  0.69661372     0.33500
H2626       H  0.10032928  0.75300824  0.70718983     0.38000
H2627       H  0.05014745  0.75095762  0.58219113     0.33500
H2628       H  0.01881059  0.75119330  0.59839449     0.30100
H2629       H  0.04777232  0.83242456  0.62522739     0.33500
H2630       H  0.03460385  0.84580254  0.59516356     0.30100
H2631       H  0.15332411  0.81502864  0.53493251     0.38000
H2632       H  0.14618887  0.78217548  0.54372689     0.33500
C2633       C  0.15156653  0.87724130  0.56149150    -0.20300
C2634       C  0.18100225  0.87188275  0.56358671     0.36000
C2635       C  0.19592336  0.88224021  0.58657517    -0.26200
C2636       C  0.18232315  0.89792593  0.60724372     0.02400
C2637       C  0.15299445  0.90234328  0.60584968     0.27200
C2638       C  0.13769340  0.89156288  0.58315577    -0.25400
N2639       N  0.19672666  0.85722566  0.54232003    -0.82700
H2640       H  0.21856386  0.87909058  0.58767817     0.13000
C2641       C  0.19952264  0.91229757  0.62833720     0.02400
N2642       N  0.13903525  0.91895391  0.62669305    -0.81300
H2643       H  0.11530605  0.89604578  0.58144822     0.17800
C2644       C  0.21149368  0.93796000  0.62096152    -0.26200
C2645       C  0.22512398  0.95416130  0.64125139     0.35900
C2646       C  0.22714192  0.94408976  0.66906915    -0.20200
C2647       C  0.21747293  0.91726732  0.67579417    -0.25400
C2648       C  0.20312750  0.90136184  0.65566311     0.27200
H2649       H  0.20886170  0.94595788  0.59971602     0.13000
N2650       N  0.23534883  0.98154861  0.63432449    -0.82700
H2651       H  0.21853659  0.90998092  0.69741302     0.17900
N2652       N  0.19131882  0.87475606  0.66305166    -0.81300
H2653       H  0.23179850  0.98609720  0.61305256     0.33500
H2654       H  0.25718827  0.98117342  0.63732011     0.38000
H2655       H  0.19607259  0.86968528  0.68397840     0.33500
H2656       H  0.16938817  0.87675629  0.66179546     0.30100
H2657       H  0.12925797  0.93596231  0.61653514     0.33500
H2658       H  0.12332917  0.90678154  0.63582644     0.30100
H2659       H  0.18404128  0.85080460  0.52566753     0.38000
H2660       H  0.20506237  0.83900354  0.55154671     0.33500
C2661       C  0.11099979  0.84307620  0.45443458    -0.20300
C2662       C  0.09594592  0.85631994  0.43216494     0.36000
C2663       C  0.08959556  0.84090089  0.40811322    -0.26200
C2664       C  0.09690120  0.81250133  0.40619874     0.02400
C2665       C  0.11193032  0.79924777  0.42811224     0.27200
C2666       C  0.11919564  0.81482888  0.45191829    -0.25400
N2667       N  0.08588086  0.88476473  0.43344929    -0.82700
H2668       H  0.07769566  0.85084390  0.39120989     0.13000
C2669       C  0.08593136  0.79660652  0.38222960     0.02400
N2670       N  0.11916695  0.77000350  0.42632062    -0.81300
H2671       H  0.13062344  0.80473466  0.46904331     0.17800
C2672       C  0.10293177  0.79204396  0.35870984    -0.26200
C2673       C  0.09146164  0.78123844  0.33374697     0.35900
C2674       C  0.06234689  0.77504328  0.33260198    -0.20200
C2675       C  0.04601503  0.77789806  0.35707468    -0.25400
C2676       C  0.05750964  0.78879857  0.38180267     0.27200
H2677       H  0.12484336  0.79815131  0.35946602     0.13000
N2678       N  0.10889154  0.77816887  0.30928351    -0.82700
H2679       H  0.02379361  0.77293963  0.35656803     0.17900
N2680       N  0.04015784  0.79343714  0.40609763    -0.81300
H2681       H  0.12934680  0.78499507  0.31341400     0.33500
H2682       H  0.11057681  0.75676416  0.30500945     0.38000
H2683       H  0.01946733  0.78735822  0.40209876     0.33500
H2684       H  0.04781076  0.78048018  0.42226431     0.30100
H2685       H  0.13035613  0.76352738  0.44425029     0.33500
H2686       H  0.10039010  0.75877020  0.42621226     0.30100
H2687       H  0.09061819  0.89379827  0.45272132     0.38000
H2688       H  0.06388221  0.88441133  0.43214983     0.33500
C2689       C  0.15222130  0.88817877  0.45869088    -0.20300
C2690       C  0.14687800  0.91454520  0.44622401     0.36000
C2691       C  0.16030586  0.92154160  0.42104147    -0.26200
C2692       C  0.17861174  0.90249414  0.40783585     0.02400
C2693       C  0.18453554  0.87639908  0.42053918     0.27200
C2694       C  0.17145795  0.86960628  0.44605209    -0.25400
N2695       N  0.12741577  0.93398261  0.45860498    -0.82700
H2696       H  0.15578379  0.94165318  0.41125044     0.13000
C2697       C  0.18940457  0.90948483  0.37960297     0.02400
N2698       N  0.20309381  0.85666621  0.40707144    -0.81300
H2699       H  0.17560157  0.84939988  0.45579303     0.17800
C2700       C  0.21825784  0.91406041  0.37557873    -0.26200
C2701       C  0.22836570  0.92383492  0.34954026     0.35900
C2702       C  0.20908390  0.92888619  0.32729579    -0.20200
C2703       C  0.18047164  0.92258872  0.33108706    -0.25400
C2704       C  0.17049152  0.91279390  0.35693718     0.27200
H2705       H  0.23266031  0.91120713  0.39314074     0.13000
N2706       N  0.25769909  0.93013934  0.34619399    -0.82700
H2707       H  0.16567559  0.92582133  0.31390453     0.17900
N2708       N  0.14111906  0.90661250  0.36051597    -0.81300
H2709       H  0.26894733  0.92513750  0.36453837     0.33500
H2710       H  0.25929445  0.95180080  0.34345014     0.38000
H2711       H  0.12995250  0.91022733  0.34180917     0.33500
H2712       H  0.13958728  0.88520780  0.36490499     0.30100
H2713       H  0.20522479  0.83846055  0.41923714     0.33500
H2714       H  0.19359388  0.85075254  0.38815409     0.30100
H2715       H  0.13816269  0.95253904  0.46252174     0.38000
H2716       H  0.11167696  0.93862988  0.44378952     0.33500
C2717       C  0.15413636  0.91809496  0.51516937    -0.20300
C2718       C  0.18001791  0.92824362  0.50495465     0.36000
C2719       C  0.18489638  0.95742220  0.50422522    -0.26200
C2720       C  0.16457600  0.97652392  0.51430171     0.02400
C2721       C  0.14036261  0.96604749  0.52767318     0.27200
C2722       C  0.13527336  0.93712759  0.52767391    -0.25400
N2723       N  0.20102334  0.90915731  0.49475836    -0.82700
H2724       H  0.20383135  0.96518756  0.49440437     0.13000
C2725       C  0.16565582  0.00696275  0.50684292     0.02400
N2726       N  0.12026158  0.98512456  0.53990169    -0.81300
H2727       H  0.11563384  0.92949682  0.53615548     0.17800
C2728       C  0.14435958  0.01753607  0.48919303    -0.26200
C2729       C  0.14054920  0.04632572  0.48486988     0.35900
C2730       C  0.15902050  0.06564851  0.49740180    -0.20200
C2731       C  0.18195553  0.05497449  0.51334857    -0.25400
C2732       C  0.18512244  0.02579674  0.51865911     0.27200
H2733       H  0.12932826  0.00329606  0.47995301     0.13000
N2734       N  0.11645923  0.05582980  0.46921112    -0.82700
H2735       H  0.19656151  0.06943669  0.52281051     0.17900
N2736       N  0.20722438  0.01542416  0.53678720    -0.81300
H2737       H  0.11755692  0.04709737  0.44912009     0.33500
H2738       H  0.09858828  0.04782000  0.47901130     0.38000
H2739       H  0.21956779  0.03194582  0.54395189     0.33500
H2740       H  0.19775975  0.00669244  0.55455101     0.30100
H2741       H  0.10346633  0.97420288  0.54869729     0.33500
H2742       H  0.13035347  0.99531887  0.55648477     0.30100
H2743       H  0.20568136  0.91471901  0.47401250     0.38000
H2744       H  0.21928017  0.91183054  0.50678837     0.33500
C2745       C  0.92368638  0.83931636  0.50833459    -0.20300
C2746       C  0.94238475  0.85867695  0.52076725     0.36000
C2747       C  0.97113698  0.85306226  0.52153950    -0.26200
C2748       C  0.98288140  0.83025746  0.50721684     0.02400
C2749       C  0.96467355  0.81022331  0.49553939     0.27200
C2750       C  0.93513398  0.81449321  0.49690118    -0.25400
N2751       N  0.93340173  0.88579191  0.53003877    -0.82700
H2752       H  0.98483036  0.86841028  0.53107392     0.13000
C2753       C  0.01385379  0.83099706  0.50189294     0.02400
N2754       N  0.97599033  0.78647131  0.48104496    -0.81300
H2755       H  0.92130312  0.79943111  0.48719478     0.17800
C2756       C  0.03204569  0.80883201  0.50988128    -0.26200
C2757       C  0.06161161  0.81206375  0.50946908     0.35900
C2758       C  0.07295035  0.83867302  0.50287744    -0.20200
C2759       C  0.05460624  0.86004749  0.49373501    -0.25400
C2760       C  0.02561964  0.85603242  0.49161217     0.27200
H2761       H  0.02331451  0.78919924  0.51700695     0.13000
N2762       N  0.07916945  0.78805685  0.51537771    -0.82700
H2763       H  0.06292868  0.88044703  0.48877292     0.17900
N2764       N  0.00779132  0.87778447  0.47994103    -0.81300
H2765       H  0.07594545  0.78221654  0.53631629     0.33500
H2766       H  0.10044687  0.79276036  0.51303582     0.38000
H2767       H  0.01972355  0.89487784  0.47341961     0.33500
H2768       H  0.99823081  0.86974980  0.46188436     0.30100
H2769       H  0.96825792  0.76843646  0.49070489     0.33500
H2770       H  0.96837960  0.78705707  0.46037979     0.30100
H2771       H  0.92248886  0.89553478  0.51363724     0.38000
H2772       H  0.92007692  0.88380149  0.54721644     0.33500
loop_ 
_geom_bond_atom_site_label_1 
_geom_bond_atom_site_label_2 
_geom_bond_distance 
_geom_bond_site_symmetry_2 
_ccdc_geom_bond_type 
C1            C2   1.409       .  A
C1            C6   1.410       .  A
C1         C2758   1.498       .  S
C2            C3   1.417       .  A
C2         C2661   1.483       .  S
C3            C4   1.414       .  A
C3         C2689   1.483       .  S
C4            C5   1.417       .  A
C4         C2717   1.505       .  S
C5            C6   1.420       .  A
C5         C2633   1.476       .  S
C6         C2605   1.489       .  S
C7            C8   1.416       .  A
C7           C12   1.426       .  A
C7         C2730   1.510       .  S
C8            C9   1.418       .  A
C8         C2465   1.493       .  S
C9           C10   1.417       .  A
C9         C2506   1.488       .  S
C10          C11   1.417       .  A
C10        C2590   1.503       .  S
C11          C12   1.431       .  A
C11        C2534   1.502       .  S
C12        C2562   1.495       .  S
C13          C14   1.410       .  A
C13          C18   1.410       .  A
C13        C2577   1.499       .  S
C14          C15   1.417       .  A
C14        C2381   1.477       .  S
C15          C16   1.419       .  A
C15        C2409   1.497       .  S
C16          C17   1.422       .  A
C16        C2437   1.490       .  S
C17          C18   1.418       .  A
C17        C2366   1.495       .  S
C18        C2338   1.484       .  S
C19          C20   1.418       .  A
C19          C24   1.418       .  A
C19        C2745   1.501       .  S
C20          C21   1.424       .  A
C20        C2213   1.502       .  S
C21          C22   1.421       .  A
C21        C2241   1.490       .  S
C22          C23   1.419       .  A
C22        C2450   1.502       .  S
C23          C24   1.421       .  A
C23        C2282   1.499       .  S
C24        C2297   1.489       .  S
C25          C26   1.414       .  A
C25          C30   1.413       .  A
C25        C2185   1.496       .  S
C26          C27   1.414       .  A
C26        C2086   1.478       .  S
C27          C28   1.419       .  A
C27        C2058   1.503       .  S
C28          C29   1.424       .  A
C28        C2170   1.493       .  S
C29          C30   1.419       .  A
C29        C2114   1.489       .  S
C30        C2129   1.496       .  S
C31          C32   1.420       .  A
C31          C36   1.421       .  A
C31        C2198   1.502       .  S
C32          C33   1.417       .  A
C32        C1946   1.492       .  S
C33          C34   1.413       .  A
C33        C1918   1.485       .  S
C34          C35   1.410       .  A
C34        C2030   1.502       .  S
C35          C36   1.418       .  A
C35        C1974   1.489       .  S
C36        C1989   1.490       .  S
C37          C38   1.414       .  A
C37          C42   1.414       .  A
C37        C2157   1.498       .  S
C38          C39   1.420       .  A
C38        C1821   1.485       .  S
C39          C40   1.415       .  A
C39        C1849   1.485       .  S
C40          C41   1.412       .  A
C40        C1877   1.493       .  S
C41          C42   1.416       .  A
C41        C1806   1.491       .  S
C42        C1765   1.484       .  S
C43          C44   1.410       .  A
C43          C48   1.419       .  A
C43        C2017   1.495       .  S
C44          C45   1.422       .  A
C44        C1666   1.501       .  S
C45          C46   1.430       .  A
C45        C1694   1.492       .  S
C46          C47   1.428       .  A
C46        C1890   1.513       .  S
C47          C48   1.426       .  A
C47        C1737   1.505       .  S
C48        C1709   1.497       .  S
C49          C50   1.417       .  A
C49          C54   1.417       .  A
C49        C1625   1.505       .  S
C50          C51   1.423       .  A
C50        C1554   1.489       .  S
C51          C52   1.424       .  A
C51        C1582   1.507       .  S
C52          C53   1.426       .  A
C52        C1597   1.498       .  S
C53          C54   1.421       .  A
C53        C1513   1.501       .  S
C54        C1485   1.492       .  S
C55          C56   1.418       .  A
C55          C60   1.419       .  A
C55        C1610   1.497       .  S
C56          C57   1.420       .  A
C56        C1373   1.496       .  S
C57          C58   1.418       .  A
C57        C1345   1.485       .  S
C58          C59   1.415       .  A
C58        C1470   1.499       .  S
C59          C60   1.417       .  A
C59        C1401   1.499       .  S
C60        C1442   1.484       .  S
C61          C62   1.417       .  A
C61          C66   1.417       .  A
C61        C1457   1.499       .  S
C62          C63   1.419       .  A
C62        C1261   1.499       .  S
C63          C64   1.416       .  A
C63        C1289   1.476       .  S
C64          C65   1.407       .  A
C64        C1330   1.503       .  S
C65          C66   1.418       .  A
C65        C1246   1.488       .  S
C66        C1205   1.480       .  S
C67          C68   1.415       .  A
C67          C72   1.425       .  A
C67        C1638   1.506       .  S
C68          C69   1.417       .  A
C68        C1162   1.499       .  S
C69          C70   1.416       .  A
C69        C1177   1.481       .  S
C70          C71   1.417       .  A
C70        C1317   1.501       .  S
C71          C72   1.427       .  A
C71        C1121   1.512       .  S
C72        C1106   1.481       .  S
O73          C81   1.302       .  A
O73         Co93   2.130       .  S
O74          C82   1.272       .  A
O74         Co94   2.015       .  S
O75          C83   1.268       .  A
O75         Co95   1.973       .  S
O76          C84   1.260       .  A
O76         Co96   1.991       .  S
O77          C83   1.277       .  A
O77         Co94   2.033   1_565  S
O78          C84   1.258       .  A
O78         Co93   1.995   1_545  S
O79          C82   1.263       .  A
O79         Co96   1.961       .  S
O80          C81   1.260       .  A
O80         Co95   1.862       .  S
C81        C1078   1.465       .  S
C82        C1009   1.473       .  S
C83         C981   1.493       .  S
C84        C1037   1.493       .  S
O85          C98   1.269       .  A
O85         Co93   1.976   1_545  S
O86          C99   1.257       .  A
O86         Co94   1.976   1_565  S
O87         C100   1.297       .  A
O87         Co95   2.114       .  S
O88         C101   1.275       .  A
O88         Co96   2.043       .  S
O89         C101   1.256       .  A
O89         Co94   1.954       .  S
O90         C100   1.259       .  A
O90         Co93   1.861       .  S
O91          C98   1.281       .  A
O91         Co96   2.036       .  S
O92          C99   1.260       .  A
O92         Co95   2.001       .  S
Co93         O97   1.989   1_565  S
Co94         O97   2.031       .  S
Co95         O97   1.997   1_565  S
Co96         O97   2.045       .  S
C98        C2478   1.494       .  S
C99        C1722   1.489       .  S
C100       C2646   1.458       .  S
C101       C1961   1.497       .  S
O102        C110   1.269       .  A
O102       Co122   1.887   1_455  S
O103        C111   1.265   1_455  A
O103       Co123   1.865       .  S
O104        C112   1.279       .  A
O104       Co124   1.866       .  S
O105        C113   1.279       .  A
O105       Co125   1.884       .  S
O106        C112   1.311       .  A
O106       Co123   2.098       .  S
O107        C113   1.308       .  A
O107       Co122   2.084       .  S
O108        C111   1.299       .  A
O108       Co125   2.113       .  S
O109        C110   1.299       .  A
O109       Co124   2.118       .  S
C110       C1050   1.476       .  S
C111        C897   1.467       .  S
C112        C938   1.475       .  S
C113        C966   1.488       .  S
O114        C127   1.251       .  A
O114       Co122   1.961       .  S
O115        C128   1.248       .  A
O115       Co123   1.959       .  S
O116        C129   1.262       .  A
O116       Co124   1.973       .  S
O117        C130   1.261       .  A
O117       Co125   1.969       .  S
O118        C130   1.268       .  A
O118       Co123   2.021   1_655  S
O119        C129   1.266       .  A
O119       Co122   2.011   1_455  S
O120        C127   1.258       .  A
O120       Co125   1.998       .  S
O121        C128   1.262       .  A
O121       Co124   2.021       .  S
Co122       O126   2.025   1_655  S
Co123       O126   2.014       .  S
Co124       O126   1.957       .  S
Co125       O126   1.973   1_655  S
C127       C2325   1.463       .  S
C128       C1541   1.481       .  S
C129       C2493   1.490       .  S
C130       C1149   1.494       .  S
O131        C139   1.273       .  A
O131       Co151   1.878       .  S
O132        C140   1.270       .  A
O132       Co152   1.867   1_655  S
O133        C141   1.270       .  A
O133       Co153   1.858       .  S
O134        C142   1.271       .  A
O134       Co154   1.876       .  S
O135        C141   1.306       .  A
O135       Co152   2.105       .  S
O136        C142   1.303       .  A
O136       Co151   2.100   1_655  S
O137        C140   1.303       .  A
O137       Co154   2.112       .  S
O138        C139   1.302       .  A
O138       Co153   2.111       .  S
C139        C813   1.477       .  S
C140        C854   1.478       .  S
C141        C882   1.473       .  S
C142        C798   1.481       .  S
O143        C156   1.254       .  A
O143       Co151   1.965   1_655  S
O144        C157   1.251       .  A
O144       Co152   1.951       .  S
O145        C158   1.255       .  A
O145       Co153   1.978       .  S
O146        C159   1.254       .  A
O146       Co154   1.968       .  S
O147        C159   1.255       .  A
O147       Co152   1.974   1_655  S
O148        C158   1.255       .  A
O148       Co151   1.972       .  S
O149        C156   1.261       .  A
O149       Co154   2.004       .  S
O150        C157   1.262       .  A
O150       Co153   2.008       .  S
Co151       O155   1.982       .  S
Co152       O155   1.978       .  S
Co153       O155   1.974       .  S
Co154       O155   1.982   1_655  S
C156       C2310   1.469       .  S
C157       C1358   1.467       .  S
C158       C2674   1.482       .  S
C159       C1218   1.475       .  S
O160        C168   1.259       .  A
O160       Co180   1.979   1_554  S
O161        C169   1.273       .  A
O161       Co181   2.001       .  S
O162        C170   1.276       .  A
O162       Co182   1.981       .  S
O163        C171   1.277       .  A
O163       Co183   1.919       .  S
O164        C170   1.280       .  A
O164       Co181   2.019   1_554  S
O165        C171   1.295       .  A
O165       Co180   2.088       .  S
O166        C169   1.282       .  A
O166       Co183   2.016       .  S
O167        C168   1.270       .  A
O167       Co182   2.004       .  S
C168       C1862   1.475       .  S
C169       C1526   1.493       .  S
C170       C1386   1.483       .  S
C171       C1750   1.494       .  S
O172        C185   1.259       .  A
O172       Co180   1.891       .  S
O173        C186   1.259       .  A
O173       Co181   1.966   1_554  S
O174        C187   1.276       .  A
O174       Co182   2.014       .  S
O175        C188   1.268       .  A
O175       Co183   1.999       .  S
O176        C188   1.261       .  A
O176       Co181   1.972       .  S
O177        C187   1.266       .  A
O177       Co180   1.955   1_554  S
O178        C185   1.298       .  A
O178       Co183   2.140       .  S
O179        C186   1.266       .  A
O179       Co182   2.006       .  S
Co180       O184   1.976       .  S
Co181       O184   2.000       .  S
Co182       O184   2.065   1_554  S
Co183       O184   2.027       .  S
C185        C994   1.490       .  S
C186        C869   1.468       .  S
C187        C729   1.459       .  S
C188        C770   1.481       .  S
O189        C197   1.259       .  A
O189       Co209   2.008       .  S
O190        C198   1.256       .  A
O190       Co210   2.000   1_655  S
O191        C199   1.271       .  A
O191       Co211   1.993       .  S
O192        C200   1.272       .  A
O192       Co212   2.004       .  S
O193        C199   1.272       .  A
O193       Co210   2.011       .  S
O194        C200   1.264       .  A
O194       Co209   1.979   1_655  S
O195        C198   1.263       .  A
O195       Co212   1.997       .  S
O196        C197   1.262       .  A
O196       Co211   1.984       .  S
C197       C2521   1.498       .  S
C198       C1274   1.504       .  S
C199       C1414   1.481       .  S
C200       C2394   1.466       .  S
O201        C214   1.261       .  A
O201       Co209   1.963   1_655  S
O202        C215   1.258       .  A
O202       Co210   1.963       .  S
O203        C216   1.299       .  A
O203       Co211   2.086       .  S
O204        C217   1.303       .  A
O204       Co212   2.108       .  S
O205        C217   1.272       .  A
O205       Co210   1.877   1_655  S
O206        C216   1.270       .  A
O206       Co209   1.864       .  S
O207        C214   1.270       .  A
O207       Co212   2.004       .  S
O208        C215   1.268       .  A
O208       Co211   2.002       .  S
Co209       O213   1.947       .  S
Co210       O213   1.949       .  S
Co211       O213   2.107       .  S
Co212       O213   2.110   1_655  S
C214        C673   1.473       .  S
C215        C617   1.469       .  S
C216        C701   1.457       .  S
C217        C645   1.471       .  S
O218        C226   1.270       .  A
O218       Co238   2.007       .  S
O219        C227   1.267       .  A
O219       Co239   2.000   1_545  S
O220        C228   1.267       .  A
O220       Co240   2.000       .  S
O221        C229   1.266       .  A
O221       Co241   1.956       .  S
O222        C228   1.257       .  A
O222       Co239   1.956       .  S
O223        C229   1.278       .  A
O223       Co238   2.023   1_545  S
O224        C227   1.267       .  A
O224       Co241   1.998       .  S
O225        C226   1.265       .  A
O225       Co240   1.977       .  S
C226       C2702   1.481       .  S
C227       C2101   1.476       .  S
C228       C1834   1.486       .  S
C229       C2549   1.474       .  S
O230        C243   1.263       .  A
O230       Co238   1.965   1_545  S
O231        C244   1.244       .  A
O231       Co239   1.921       .  S
O232        C245   1.273       .  A
O232       Co240   2.030       .  S
O233        C246   1.278       .  A
O233       Co241   2.052       .  S
O234        C246   1.256       .  A
O234       Co239   1.939   1_545  S
O235        C245   1.259       .  A
O235       Co238   1.970       .  S
O236        C243   1.261       .  A
O236       Co241   1.969       .  S
O237        C244   1.264       .  A
O237       Co240   1.998       .  S
Co238       O242   2.059       .  S
Co239       O242   1.992       .  S
Co240       O242   2.072       .  S
Co241       O242   2.031   1_545  S
C243        C714   1.453       .  S
C244        C742   1.444       .  S
C245        C826   1.492       .  S
C246        C589   1.473       .  S
O247        C255   1.267       .  A
O247       Co267   1.964       .  S
O248        C256   1.263       .  A
O248       Co268   1.985   1_556  S
O249        C257   1.270       .  A
O249       Co269   2.002       .  S
O250        C258   1.299       .  A
O250       Co270   2.134       .  S
O251        C257   1.264       .  A
O251       Co268   1.972       .  S
O252        C258   1.261       .  A
O252       Co267   1.876   1_556  S
O253        C256   1.264       .  A
O253       Co270   1.990       .  S
O254        C255   1.281       .  A
O254       Co269   2.028       .  S
C255        C602   1.487       .  S
C256        C925   1.475       .  S
C257        C630   1.479       .  S
C258       C1022   1.472       .  S
O259        C272   1.299       .  A
O259       Co267   2.110   1_556  S
O260        C273   1.276       .  A
O260       Co268   2.010       .  S
O261        C274   1.269       .  A
O261       Co269   2.011       .  S
O262        C275   1.277       .  A
O262       Co270   1.997       .  S
O263        C275   1.277       .  A
O263       Co268   2.020   1_556  S
O264        C274   1.259       .  A
O264       Co267   1.982       .  S
O265        C272   1.268       .  A
O265       Co270   1.882       .  S
O266        C273   1.275       .  A
O266       Co269   1.983       .  S
Co267       O271   1.977       .  S
Co268       O271   2.017       .  S
Co269       O271   2.041       .  S
Co270       O271   1.983   1_556  S
C272       C2002   1.484       .  S
C273       C1429   1.492       .  S
C274       C2142   1.479       .  S
C275       C1569   1.486       .  S
O276        C284   1.238       .  A
O276       Co296   1.960       .  S
O277        C285   1.273       .  A
O277       Co297   1.996   1_565  S
O278        C286   1.262       .  A
O278       Co298   2.010       .  S
O279        C287   1.274       .  A
O279       Co299   1.997       .  S
O280        C286   1.252       .  A
O280       Co297   1.977       .  S
O281        C287   1.270       .  A
O281       Co296   1.993   1_565  S
O282        C285   1.273       .  A
O282       Co299   1.992       .  S
O283        C284   1.255       .  A
O283       Co298   2.034       .  S
C284       C2422   1.497       .  S
C285       C1778   1.470       .  S
C286       C2045   1.496       .  S
C287       C2269   1.479       .  S
O288        C301   1.261       .  A
O288       Co296   1.988   1_565  S
O289        C302   1.267       .  A
O289       Co297   1.885       .  S
O290        C303   1.297       .  A
O290       Co298   2.064       .  S
O291        C304   1.265       .  A
O291       Co299   2.005       .  S
O292        C304   1.263       .  A
O292       Co297   1.985   1_565  S
O293        C303   1.272       .  A
O293       Co296   1.899       .  S
O294        C301   1.267       .  A
O294       Co299   2.012       .  S
O295        C302   1.297       .  A
O295       Co298   2.084       .  S
Co296       O300   1.922       .  S
Co297       O300   1.957       .  S
Co298       O300   2.234       .  S
Co299       O300   2.099   1_565  S
C301        C785   1.470       .  S
C302        C546   1.475       .  S
C303        C686   1.473       .  S
C304        C561   1.485       .  S
O305        C313   1.266       .  A
O305       Co325   1.982   1_554  S
O306        C314   1.242       .  A
O306       Co326   1.957       .  S
O307        C315   1.269       .  A
O307       Co327   1.984       .  S
O308        C316   1.256       .  A
O308       Co328   2.013       .  S
O309        C315   1.267       .  A
O309       Co326   1.982   1_554  S
O310        C316   1.244       .  A
O310       Co325   1.962       .  S
O311        C314   1.255       .  A
O311       Co328   2.003       .  S
O312        C313   1.267       .  A
O312       Co327   1.986       .  S
C313       C2073   1.464       .  S
C314       C1190   1.474       .  S
C315       C1302   1.465       .  S
C316       C1933   1.493       .  S
O317        C330   1.266       .  A
O317       Co325   1.891       .  S
O318        C331   1.262       .  A
O318       Co326   1.990   1_554  S
O319        C332   1.267       .  A
O319       Co327   2.010       .  S
O320        C333   1.293       .  A
O320       Co328   2.061       .  S
O321        C333   1.269       .  A
O321       Co326   1.904       .  S
O322        C332   1.257       .  A
O322       Co325   1.987   1_554  S
O323        C330   1.293       .  A
O323       Co328   2.058       .  S
O324        C331   1.265       .  A
O324       Co327   2.001       .  S
Co325       O329   1.913   1_556  S
Co326       O329   1.926   1_556  S
Co327       O329   2.100       .  S
Co328       O329   2.251   1_556  S
C330        C505   1.469       .  S
C331        C658   1.475       .  S
C332        C533   1.486       .  S
C333        C910   1.477       .  S
O334        C342   1.271       .  A
O334       Co354   2.015       .  S
O335        C343   1.288       .  A
O335       Co355   2.031       .  S
O336        C344   1.274       .  A
O336       Co356   1.922       .  S
O337        C345   1.270       .  A
O337       Co357   2.001       .  S
O338        C344   1.292       .  A
O338       Co355   2.044   1_455  S
O339        C345   1.265       .  A
O339       Co354   1.989   1_655  S
O340        C343   1.279       .  A
O340       Co357   1.936       .  S
O341        C342   1.263       .  A
O341       Co356   1.985       .  S
C342       C2618   1.475       .  S
C343       C1093   1.485       .  S
C344       C1498   1.488       .  S
C345       C2226   1.485       .  S
O346        C359   1.265       .  A
O346       Co354   1.969   1_655  S
O347        C360   1.251       .  A
O347       Co355   2.006   1_455  S
O348        C361   1.271       .  A
O348       Co356   2.011       .  S
O349        C362   1.249       .  A
O349       Co357   1.975       .  S
O350        C362   1.254       .  A
O350       Co355   1.995       .  S
O351        C361   1.262       .  A
O351       Co354   1.965       .  S
O352        C359   1.274       .  A
O352       Co357   2.014       .  S
O353        C360   1.239       .  A
O353       Co356   1.946       .  S
Co354       O358   2.054   1_455  S
Co355       O358   2.241       .  S
Co356       O358   1.951   1_455  S
Co357       O358   1.975       .  S
C359        C477   1.486       .  S
C360        C757   1.468       .  S
C361       C1065   1.480       .  S
C362        C462   1.493       .  S
O363        C371   1.278       .  A
O363       Co383   2.038       .  S
O364        C372   1.257       .  A
O364       Co384   2.000   1_565  S
O365        C373   1.264       .  A
O365       Co385   1.883       .  S
O366        C374   1.258       .  A
O366       Co386   1.958       .  S
O367        C373   1.293       .  A
O367       Co384   2.100       .  S
O368        C374   1.269       .  A
O368       Co383   2.021   1_565  S
O369        C372   1.256       .  A
O369       Co386   1.975       .  S
O370        C371   1.267       .  A
O370       Co385   1.975       .  S
C371        C953   1.498       .  S
C372        C434   1.481       .  S
C373        C518   1.476       .  S
C374        C490   1.484       .  S
O375        C388   1.262       .  A
O375       Co383   1.962   1_565  S
O376        C389   1.261       .  A
O376       Co384   1.864       .  S
O377        C390   1.263       .  A
O377       Co385   2.014       .  S
O378        C391   1.282       .  A
O378       Co386   2.047       .  S
O379        C391   1.271       .  A
O379       Co384   1.972   1_565  S
O380        C390   1.255       .  A
O380       Co383   1.965       .  S
O381        C388   1.277       .  A
O381       Co386   2.033       .  S
O382        C389   1.301       .  A
O382       Co385   2.116       .  S
Co383       O387   2.047       .  S
Co384       O387   1.998       .  S
Co385       O387   2.019       .  S
Co386       O387   2.025   1_565  S
C388       C2254   1.495       .  S
C389       C1905   1.471       .  S
C390       C2353   1.493       .  S
C391       C1653   1.508       .  S
O392        C400   1.270       .  A
O392       Co412   1.986       .  S
O393        C401   1.261       .  A
O393       Co413   1.995   1_556  S
O394        C402   1.288       .  A
O394       Co414   2.108       .  S
O395        C403   1.318       .  A
O395       Co415   2.143       .  S
O396        C402   1.259       .  A
O396       Co413   1.901       .  S
O397        C403   1.282       .  A
O397       Co412   1.848   1_556  S
O398        C401   1.261       .  A
O398       Co415   1.977       .  S
O399        C400   1.272       .  A
O399       Co414   2.004       .  S
C400        C574   1.475       .  S
C401        C449   1.478       .  S
C402        C841   1.477       .  S
C403        C421   1.479       .  S
O404        C417   1.256       .  A
O404       Co412   2.011   1_556  S
O405        C418   1.305       .  A
O405       Co413   2.100       .  S
O406        C419   1.281       .  A
O406       Co414   1.997       .  S
O407        C420   1.277       .  A
O407       Co415   2.022       .  S
O408        C420   1.265       .  A
O408       Co413   1.982   1_556  S
O409        C419   1.281       .  A
O409       Co412   2.010       .  S
O410        C417   1.256       .  A
O410       Co415   1.988       .  S
O411        C418   1.282       .  A
O411       Co414   1.890       .  S
Co412       O416   1.897       .  S
Co413       O416   1.961       .  S
Co414       O416   1.995       .  S
Co415       O416   2.085   1_556  S
C417       C1681   1.490       .  S
C418       C1233   1.478       .  S
C419       C1793   1.485       .  S
C420       C1134   1.497       .  S
C421        C422   1.412       .  A
C421        C426   1.410       .  A
C422        C423   1.401       .  A
C422        N427   1.438       .  S
C423        C424   1.402       .  A
C423        H428   1.084       .  S
C424        C425   1.405       .  A
C424        C429   1.475       .  S
C425        C426   1.403       .  A
C425        N430   1.438       .  S
C426        H431   1.083       .  S
N427        H447   1.046       .  S
N427        H448   1.046       .  S
C429        C432   1.401       .  A
C429        C436   1.407       .  A
N430        H445   1.046       .  S
N430        H446   1.046       .  S
C432        C433   1.403       .  A
C432        H437   1.084       .  S
C433        C434   1.415       .  A
C433        N438   1.433       .  S
C434        C435   1.406       .  A
C435        C436   1.400       .  A
C435        H439   1.083       .  S
C436        N440   1.438       .  S
N438        H441   1.046       .  S
N438        H442   1.046       .  S
N440        H443   1.046       .  S
N440        H444   1.046       .  S
C449        C450   1.409       .  A
C449        C454   1.404       .  A
C450        C451   1.415       .  A
C450        N455   1.437       .  S
C451        C452   1.409       .  A
C451        H456   1.083       .  S
C452        C453   1.409       .  A
C452        C457   1.486       .  S
C453        C454   1.397       .  A
C453        N458   1.439       .  S
C454        H459   1.085       .  S
N455        H475   1.046       .  S
N455        H476   1.046       .  S
C457        C460   1.403       .  A
C457        C464   1.409       .  A
N458        H473   1.046       .  S
N458        H474   1.046       .  S
C460        C461   1.404       .  A
C460        H465   1.084       .  S
C461        C462   1.415       .  A
C461        N466   1.432       .  S
C462        C463   1.409       .  A
C463        C464   1.408       .  A
C463        H467   1.083       .  S
C464        N468   1.438       .  S
N466        H469   1.046       .  S
N466        H470   1.046       .  S
N468        H471   1.046       .  S
N468        H472   1.046       .  S
C477        C478   1.417       .  A
C477        C482   1.407       .  A
C478        C479   1.399       .  A
C478        N483   1.433       .  S
C479        C480   1.398       .  A
C479        H484   1.084       .  S
C480        C481   1.410       .  A
C480        C485   1.478       .  S
C481        C482   1.406       .  A
C481        N486   1.438       .  S
C482        H487   1.083       .  S
N483        H503   1.046       .  S
N483        H504   1.046       .  S
C485        C488   1.403       .  A
C485        C492   1.407       .  A
N486        H501   1.046       .  S
N486        H502   1.046       .  S
C488        C489   1.408       .  A
C488        H493   1.084       .  S
C489        C490   1.416       .  A
C489        N494   1.438       .  S
C490        C491   1.407       .  A
C491        C492   1.398       .  A
C491        H495   1.083       .  S
C492        N496   1.439       .  S
N494        H497   1.046       .  S
N494        H498   1.046       .  S
N496        H499   1.046       .  S
N496        H500   1.046       .  S
C505        C506   1.409       .  A
C505        C510   1.405       .  A
C506        C507   1.399       .  A
C506        N511   1.433       .  S
C507        C508   1.401       .  A
C507        H512   1.084       .  S
C508        C509   1.405       .  A
C508        C513   1.467       .  S
C509        C510   1.397       .  A
C509        N514   1.438       .  S
C510        H515   1.084       .  S
N511        H531   1.046       .  S
N511        H532   1.045       .  S
C513        C516   1.399       .  A
C513        C520   1.403       .  A
N514        H529   1.046       .  S
N514        H530   1.045       .  S
C516        C517   1.395       .  A
C516        H521   1.085       .  S
C517        C518   1.412       .  A
C517        N522   1.433       .  S
C518        C519   1.409       .  A
C519        C520   1.402       .  A
C519        H523   1.083       .  S
C520        N524   1.437       .  S
N522        H525   1.046       .  S
N522        H526   1.046       .  S
N524        H527   1.046       .  S
N524        H528   1.046       .  S
C533        C534   1.416       .  A
C533        C538   1.406       .  A
C534        C535   1.406       .  A
C534        N539   1.432       .  S
C535        C536   1.399       .  A
C535        H540   1.084       .  S
C536        C537   1.407       .  A
C536        C541   1.474       .  S
C537        C538   1.400       .  A
C537        N542   1.439       .  S
C538        H543   1.083       .  S
N539        H559   1.045       .  S
N539        H560   1.045       .  S
C541        C544   1.400       .  A
C541        C548   1.407       .  A
N542        H557   1.046       .  S
N542        H558   1.046       .  S
C544        C545   1.402       .  A
C544        H549   1.084       .  S
C545        C546   1.410       .  A
C545        N550   1.433       .  S
C546        C547   1.404       .  A
C547        C548   1.403       .  A
C547        H551   1.084       .  S
C548        N552   1.432       .  S
N550        H553   1.046       .  S
N550        H554   1.046       .  S
N552        H555   1.045       .  S
N552        H556   1.046       .  S
C561        C562   1.411       .  A
C561        C566   1.404       .  A
C562        C563   1.400       .  A
C562        N567   1.433       .  S
C563        C564   1.404       .  A
C563        H568   1.083       .  S
C564        C565   1.418       .  A
C564        C569   1.497       .  S
C565        C566   1.411       .  A
C565        N570   1.437       .  S
C566        H571   1.084       .  S
N567        H587   1.046       .  S
N567        H588   1.046       .  S
C569        C572   1.405       .  A
C569        C576   1.419       .  A
N570        H585   1.046       .  S
N570        H586   1.045       .  S
C572        C573   1.399       .  A
C572        H577   1.083       .  S
C573        C574   1.405       .  A
C573        N578   1.432       .  S
C574        C575   1.402       .  A
C575        C576   1.412       .  A
C575        H579   1.082       .  S
C576        N580   1.438       .  S
N578        H581   1.046       .  S
N578        H582   1.046       .  S
N580        H583   1.046       .  S
N580        H584   1.045       .  S
C589        C590   1.416       .  A
C589        C594   1.398       .  A
C590        C591   1.406       .  A
C590        N595   1.439       .  S
C591        C592   1.403       .  A
C591        H596   1.084       .  S
C592        C593   1.408       .  A
C592        C597   1.483       .  S
C593        C594   1.398       .  A
C593        N598   1.432       .  S
C594        H599   1.080       .  S
N595        H615   1.045       .  S
N595        H616   1.046       .  S
C597        C600   1.403       .  A
C597        C604   1.408       .  A
N598        H613   1.045       .  S
N598        H614   1.046       .  S
C600        C601   1.405       .  A
C600        H605   1.084       .  S
C601        C602   1.416       .  A
C601        N606   1.433       .  S
C602        C603   1.405       .  A
C603        C604   1.398       .  A
C603        H607   1.083       .  S
C604        N608   1.433       .  S
N606        H609   1.045       .  S
N606        H610   1.046       .  S
N608        H611   1.046       .  S
N608        H612   1.046       .  S
C617        C618   1.408       .  A
C617        C622   1.402       .  A
C618        C619   1.400       .  A
C618        N623   1.432       .  S
C619        C620   1.402       .  A
C619        H624   1.084       .  S
C620        C621   1.408       .  A
C620        C625   1.475       .  S
C621        C622   1.400       .  A
C621        N626   1.432       .  S
C622        H627   1.084       .  S
N623        H643   1.046       .  S
N623        H644   1.046       .  S
C625        C628   1.401       .  A
C625        C632   1.411       .  A
N626        H641   1.045       .  S
N626        H642   1.046       .  S
C628        C629   1.404       .  A
C628        H633   1.084       .  S
C629        C630   1.413       .  A
C629        N634   1.432       .  S
C630        C631   1.404       .  A
C631        C632   1.397       .  A
C631        H635   1.083       .  S
C632        N636   1.440       .  S
N634        H637   1.045       .  S
N634        H638   1.046       .  S
N636        H639   1.046       .  S
N636        H640   1.046       .  S
C645        C646   1.405       .  A
C645        C650   1.405       .  A
C646        C647   1.399       .  A
C646        N651   1.433       .  S
C647        C648   1.403       .  A
C647        H652   1.084       .  S
C648        C649   1.409       .  A
C648        C653   1.479       .  S
C649        C650   1.408       .  A
C649        N654   1.437       .  S
C650        H655   1.084       .  S
N651        H671   1.045       .  S
N651        H672   1.046       .  S
C653        C656   1.401       .  A
C653        C660   1.409       .  A
N654        H669   1.046       .  S
N654        H670   1.046       .  S
C656        C657   1.403       .  A
C656        H661   1.084       .  S
C657        C658   1.408       .  A
C657        N662   1.429       .  S
C658        C659   1.404       .  A
C659        C660   1.404       .  A
C659        H663   1.084       .  S
C660        N664   1.437       .  S
N662        H665   1.045       .  S
N662        H666   1.046       .  S
N664        H667   1.046       .  S
N664        H668   1.046       .  S
C673        C674   1.412       .  A
C673        C678   1.403       .  A
C674        C675   1.402       .  A
C674        N679   1.431       .  S
C675        C676   1.399       .  A
C675        H680   1.084       .  S
C676        C677   1.407       .  A
C676        C681   1.473       .  S
C677        C678   1.398       .  A
C677        N682   1.433       .  S
C678        H683   1.084       .  S
N679        H699   1.046       .  S
N679        H700   1.046   1_655  S
C681        C684   1.403       .  A
C681        C688   1.403       .  A
N682        H697   1.046       .  S
N682        H698   1.046       .  S
C684        C685   1.402       .  A
C684        H689   1.084       .  S
C685        C686   1.410       .  A
C685        N690   1.433       .  S
C686        C687   1.405       .  A
C687        C688   1.399       .  A
C687        H691   1.084       .  S
C688        N692   1.432       .  S
N690        H693   1.046       .  S
N690        H694   1.045       .  S
N692        H695   1.045       .  S
N692        H696   1.046       .  S
C701        C702   1.407       .  A
C701        C706   1.402       .  A
C702        C703   1.388       .  A
C702        N707   1.431       .  S
C703        C704   1.397       .  A
C703        H708   1.084       .  S
C704        C705   1.405       .  A
C704        C709   1.457       .  S
C705        C706   1.394       .  A
C705        N710   1.433       .  S
C706        H711   1.082       .  S
N707        H727   1.046       .  S
N707        H728   1.046       .  S
C709        C712   1.397       .  A
C709        C716   1.405       .  A
N710        H725   1.045       .  S
N710        H726   1.046       .  S
C712        C713   1.391       .  A
C712        H717   1.084       .  S
C713        C714   1.410       .  A
C713        N718   1.436       .  S
C714        C715   1.401       .  A
C715        C716   1.390       .  A
C715        H719   1.084       .  S
C716        N720   1.433       .  S
N718        H721   1.045       .  S
N718        H722   1.045       .  S
N720        H723   1.046       .  S
N720        H724   1.046       .  S
C729        C730   1.405       .  A
C729        C734   1.405       .  A
C730        C731   1.393       .  A
C730        N735   1.432       .  S
C731        C732   1.400       .  A
C731        H736   1.085       .  S
C732        C733   1.401       .  A
C732        C737   1.455       .  S
C733        C734   1.400       .  A
C733        N738   1.437       .  S
C734        H739   1.081       .  S
N735        H755   1.045       .  S
N735        H756   1.046       .  S
C737        C740   1.401       .  A
C737        C744   1.404       .  A
N738        H753   1.045       .  S
N738        H754   1.046       .  S
C740        C741   1.394       .  A
C740        H745   1.084       .  S
C741        C742   1.404       .  A
C741        N746   1.434       .  S
C742        C743   1.398       .  A
C743        C744   1.393       .  A
C743        H747   1.084       .  S
C744        N748   1.437       .  S
N746        H749   1.046       .  S
N746        H750   1.045       .  S
N748        H751   1.046       .  S
N748        H752   1.046       .  S
C757        C758   1.411       .  A
C757        C762   1.402       .  A
C758        C759   1.397       .  A
C758        N763   1.433       .  S
C759        C760   1.396       .  A
C759        H764   1.084       .  S
C760        C761   1.411       .  A
C760        C765   1.471       .  S
C761        C762   1.407       .  A
C761        N766   1.438       .  S
C762        H767   1.084       .  S
N763        H783   1.046       .  S
N763        H784   1.045       .  S
C765        C768   1.397       .  A
C765        C772   1.405       .  A
N766        H781   1.045       .  S
N766        H782   1.045       .  S
C768        C769   1.400       .  A
C768        H773   1.084       .  S
C769        C770   1.416       .  A
C769        N774   1.432       .  S
C770        C771   1.406       .  A
C771        C772   1.400       .  A
C771        H775   1.084       .  S
C772        N776   1.433       .  S
N774        H777   1.046       .  S
N774        H778   1.046       .  S
N776        H779   1.046       .  S
N776        H780   1.045       .  S
C785        C786   1.410       .  A
C785        C790   1.403       .  A
C786        C787   1.400       .  A
C786        N791   1.439       .  S
C787        C788   1.400       .  A
C787        H792   1.084       .  S
C788        C789   1.409       .  A
C788        C793   1.476       .  S
C789        C790   1.409       .  A
C789        N794   1.436       .  S
C790        H795   1.083       .  S
N791        H811   1.046       .  S
N791        H812   1.046       .  S
C793        C796   1.400       .  A
C793        C800   1.406       .  A
N794        H809   1.046       .  S
N794        H810   1.046       .  S
C796        C797   1.405       .  A
C796        H801   1.084       .  S
C797        C798   1.416       .  A
C797        N802   1.438       .  S
C798        C799   1.406       .  A
C799        C800   1.404       .  A
C799        H803   1.084       .  S
C800        N804   1.437       .  S
N802        H805   1.044       .  S
N802        H806   1.046       .  S
N804        H807   1.046       .  S
N804        H808   1.045       .  S
C813        C814   1.411       .  A
C813        C818   1.401       .  A
C814        C815   1.406       .  A
C814        N819   1.433       .  S
C815        C816   1.404       .  A
C815        H820   1.084       .  S
C816        C817   1.413       .  A
C816        C821   1.485       .  S
C817        C818   1.403       .  A
C817        N822   1.439       .  S
C818        H823   1.084       .  S
N819        H839   1.045       .  S
N819        H840   1.045       .  S
C821        C824   1.402       .  A
C821        C828   1.407       .  A
N822        H837   1.046       .  S
N822        H838   1.046       .  S
C824        C825   1.403       .  A
C824        H829   1.084       .  S
C825        C826   1.423       .  A
C825        N830   1.432       .  S
C826        C827   1.406       .  A
C827        C828   1.403       .  A
C827        H831   1.084       .  S
C828        N832   1.432       .  S
N830        H833   1.045       .  S
N830        H834   1.045       .  S
N832        H835   1.045       .  S
N832        H836   1.045       .  S
C841        C842   1.413       .  A
C841        C846   1.403       .  A
C842        C843   1.406       .  A
C842        N847   1.438       .  S
C843        C844   1.402       .  A
C843        H848   1.084       .  S
C844        C845   1.409       .  A
C844        C849   1.477       .  S
C845        C846   1.400       .  A
C845        N850   1.439       .  S
C846        H851   1.083       .  S
N847        H867   1.046       .  S
N847        H868   1.046       .  S
C849        C852   1.403       .  A
C849        C856   1.405       .  A
N850        H865   1.046       .  S
N850        H866   1.046       .  S
C852        C853   1.406       .  A
C852        H857   1.084       .  S
C853        C854   1.413       .  A
C853        N858   1.437       .  S
C854        C855   1.405       .  A
C855        C856   1.398       .  A
C855        H859   1.084       .  S
C856        N860   1.433       .  S
N858        H861   1.046       .  S
N858        H862   1.046       .  S
N860        H863   1.045       .  S
N860        H864   1.045       .  S
C869        C870   1.411       .  A
C869        C874   1.402       .  A
C870        C871   1.397       .  A
C870        N875   1.433       .  S
C871        C872   1.399       .  A
C871        H876   1.084       .  S
C872        C873   1.407       .  A
C872        C877   1.469       .  S
C873        C874   1.404       .  A
C873        N878   1.437       .  S
C874        H879   1.084       .  S
N875        H895   1.046       .  S
N875        H896   1.046       .  S
C877        C880   1.397       .  A
C877        C884   1.407       .  A
N878        H893   1.046       .  S
N878        H894   1.046       .  S
C880        C881   1.399       .  A
C880        H885   1.084       .  S
C881        C882   1.415       .  A
C881        N886   1.438       .  S
C882        C883   1.405       .  A
C883        C884   1.404       .  A
C883        H887   1.084       .  S
C884        N888   1.437       .  S
N886        H889   1.046       .  S
N886        H890   1.045       .  S
N888        H891   1.046       .  S
N888        H892   1.045       .  S
C897        C898   1.408       .  A
C897        C902   1.401       .  A
C898        C899   1.397       .  A
C898        N903   1.434       .  S
C899        C900   1.402       .  A
C899        H904   1.084       .  S
C900        C901   1.415       .  A
C900        C905   1.484       .  S
C901        C902   1.407       .  A
C901        N906   1.437       .  S
C902        H907   1.084       .  S
N903        H923   1.045       .  S
N903        H924   1.046       .  S
C905        C908   1.401       .  A
C905        C912   1.413       .  A
N906        H921   1.046       .  S
N906        H922   1.045       .  S
C908        C909   1.398       .  A
C908        H913   1.084       .  S
C909        C910   1.411       .  A
C909        N914   1.433       .  S
C910        C911   1.403       .  A
C911        C912   1.407       .  A
C911        H915   1.080       .  S
C912        N916   1.438       .  S
N914        H917   1.046       .  S
N914        H918   1.046       .  S
N916        H919   1.046       .  S
N916        H920   1.046       .  S
C925        C926   1.410       .  A
C925        C930   1.402       .  A
C926        C927   1.401       .  A
C926        N931   1.433       .  S
C927        C928   1.403       .  A
C927        H932   1.083       .  S
C928        C929   1.410       .  A
C928        C933   1.486       .  S
C929        C930   1.403       .  A
C929        N934   1.432       .  S
C930        H935   1.084       .  S
N931        H951   1.046       .  S
N931        H952   1.045       .  S
C933        C936   1.407       .  A
C933        C940   1.418       .  A
N934        H949   1.045       .  S
N934        H950   1.046       .  S
C936        C937   1.408       .  A
C936        H941   1.084       .  S
C937        C938   1.408       .  A
C937        N942   1.432       .  S
C938        C939   1.401       .  A
C939        C940   1.391       .  A
C939        H943   1.084       .  S
C940        N944   1.434       .  S
N942        H945   1.046       .  S
N942        H946   1.046       .  S
N944        H947   1.043       .  S
N944        H948   1.046       .  S
C953        C954   1.419       .  A
C953        C958   1.409       .  A
C954        C955   1.411       .  A
C954        N959   1.437       .  S
C955        C956   1.403       .  A
C955        H960   1.084       .  S
C956        C957   1.409       .  A
C956        C961   1.492       .  S
C957        C958   1.407       .  A
C957        N962   1.438       .  S
C958        H963   1.083       .  S
N959        H979   1.046       .  S
N959        H980   1.045       .  S
C961        C964   1.404       .  A
C961        C968   1.410       .  A
N962        H977   1.046       .  S
N962        H978   1.046       .  S
C964        C965   1.407       .  A
C964        H969   1.084       .  S
C965        C966   1.414       .  A
C965        N970   1.438       .  S
C966        C967   1.407       .  A
C967        C968   1.409       .  A
C967        H971   1.083       .  S
C968        N972   1.437       .  S
N970        H973   1.046       .  S
N970        H974   1.046       .  S
N972        H975   1.046       .  S
N972        H976   1.045       .  S
C981        C982   1.421       .  A
C981        C986   1.409       .  A
C982        C983   1.400       .  A
C982        N987   1.431       .  S
C983        C984   1.400       .  A
C983        H988   1.084       .  S
C984        C985   1.407       .  A
C984        C989   1.482       .  S
C985        C986   1.407       .  A
C985        N990   1.437       .  S
C986        H991   1.083       .  S
N987       H1007   1.045       .  S
N987       H1008   1.043       .  S
C989        C992   1.398       .  A
C989        C996   1.407       .  A
N990       H1005   1.046       .  S
N990       H1006   1.045       .  S
C992        C993   1.406       .  A
C992        H997   1.084       .  S
C993        C994   1.417       .  A
C993        N998   1.431       .  S
C994        C995   1.406       .  A
C995        C996   1.406       .  A
C995        H999   1.084       .  S
C996       N1000   1.432       .  S
N998       H1001   1.046       .  S
N998       H1002   1.046       .  S
N1000      H1003   1.046       .  S
N1000      H1004   1.045       .  S
C1009      C1010   1.407       .  A
C1009      C1014   1.403       .  A
C1010      C1011   1.397       .  A
C1010      N1015   1.431       .  S
C1011      C1012   1.405       .  A
C1011      H1016   1.083       .  S
C1012      C1013   1.413       .  A
C1012      C1017   1.487       .  S
C1013      C1014   1.403       .  A
C1013      N1018   1.438       .  S
C1014      H1019   1.084       .  S
N1015      H1035   1.044       .  S
N1015      H1036   1.045       .  S
C1017      C1020   1.407       .  A
C1017      C1024   1.413       .  A
N1018      H1033   1.046       .  S
N1018      H1034   1.045       .  S
C1020      C1021   1.400       .  A
C1020      H1025   1.083       .  S
C1021      C1022   1.406       .  A
C1021      N1026   1.437       .  S
C1022      C1023   1.404       .  A
C1023      C1024   1.402       .  A
C1023      H1027   1.084       .  S
C1024      N1028   1.438       .  S
N1026      H1029   1.046       .  S
N1026      H1030   1.046       .  S
N1028      H1031   1.046       .  S
N1028      H1032   1.045       .  S
C1037      C1038   1.418       .  A
C1037      C1042   1.408       .  A
C1038      C1039   1.404       .  A
C1038      N1043   1.433       .  S
C1039      C1040   1.400       .  A
C1039      H1044   1.084       .  S
C1040      C1041   1.408       .  A
C1040      C1045   1.482       .  S
C1041      C1042   1.408       .  A
C1041      N1046   1.438       .  S
C1042      H1047   1.083       .  S
N1043      H1063   1.045       .  S
N1043      H1064   1.045       .  S
C1045      C1048   1.405       .  A
C1045      C1052   1.409       .  A
N1046      H1061   1.046       .  S
N1046      H1062   1.046       .  S
C1048      C1049   1.412       .  A
C1048      H1053   1.083       .  S
C1049      C1050   1.411       .  A
C1049      N1054   1.437       .  S
C1050      C1051   1.402       .  A
C1051      C1052   1.402       .  A
C1051      H1055   1.084       .  S
C1052      N1056   1.438       .  S
N1054      H1057   1.046       .  S
N1054      H1058   1.046       .  S
N1056      H1059   1.046       .  S
N1056      H1060   1.045       .  S
C1065      C1066   1.416       .  A
C1065      C1070   1.406       .  A
C1066      C1067   1.397       .  A
C1066      N1071   1.433       .  S
C1067      C1068   1.395       .  A
C1067      H1072   1.084       .  S
C1068      C1069   1.407       .  A
C1068      C1073   1.469       .  S
C1069      C1070   1.404       .  A
C1069      N1074   1.438       .  S
C1070      H1075   1.083       .  S
N1071      H1091   1.046       .  S
N1071      H1092   1.046       .  S
C1073      C1076   1.397       .  A
C1073      C1080   1.410       .  A
N1074      H1089   1.046       .  S
N1074      H1090   1.046       .  S
C1076      C1077   1.400       .  A
C1076      H1081   1.084       .  S
C1077      C1078   1.413       .  A
C1077      N1082   1.437       .  S
C1078      C1079   1.400       .  A
C1079      C1080   1.403       .  A
C1079      H1083   1.084       .  S
C1080      N1084   1.438       .  S
N1082      H1085   1.046       .  S
N1082      H1086   1.044       .  S
N1084      H1087   1.046       .  S
N1084      H1088   1.046       .  S
C1093      C1094   1.412       .  A
C1093      C1098   1.408       .  A
C1094      C1095   1.406       .  A
C1094      N1099   1.432       .  S
C1095      C1096   1.402       .  A
C1095      H1100   1.084       .  S
C1096      C1097   1.406       .  A
C1096      C1101   1.482       .  S
C1097      C1098   1.404       .  A
C1097      N1102   1.433       .  S
C1098      H1103   1.084       .  S
N1099      H1119   1.046       .  S
N1099      H1120   1.045       .  S
C1101      C1104   1.402       .  A
C1101      C1108   1.415       .  A
N1102      H1117   1.045       .  S
N1102      H1118   1.046       .  S
C1104      C1105   1.403       .  A
C1104      H1109   1.084       .  S
C1105      C1106   1.407       .  A
C1105      N1110   1.432       .  S
C1106      C1107   1.402       .  A
C1107      C1108   1.400       .  A
C1107      H1111   1.084       .  S
C1108      N1112   1.432       .  S
N1110      H1113   1.046       .  S
N1110      H1114   1.045       .  S
N1112      H1115   1.045       .  S
N1112      H1116   1.044       .  S
C1121      C1122   1.417       .  A
C1121      C1126   1.406       .  A
C1122      C1123   1.412       .  A
C1122      N1127   1.432       .  S
C1123      C1124   1.403       .  A
C1123      H1128   1.084       .  S
C1124      C1125   1.415       .  A
C1124      C1129   1.499       .  S
C1125      C1126   1.406       .  A
C1125      N1130   1.432       .  S
C1126      H1131   1.081       .  S
N1127      H1147   1.045       .  S
N1127      H1148   1.045       .  S
C1129      C1132   1.401       .  A
C1129      C1136   1.414       .  A
N1130      H1145   1.045       .  S
N1130      H1146   1.046       .  S
C1132      C1133   1.409       .  A
C1132      H1137   1.084       .  S
C1133      C1134   1.417       .  A
C1133      N1138   1.437       .  S
C1134      C1135   1.407       .  A
C1135      C1136   1.419       .  A
C1135      H1139   1.083       .  S
C1136      N1140   1.437       .  S
N1138      H1141   1.046   1_556  S
N1138      H1142   1.044   1_556  S
N1140      H1143   1.046       .  S
N1140      H1144   1.046       .  S
C1149      C1150   1.417       .  A
C1149      C1154   1.408       .  A
C1150      C1151   1.408       .  A
C1150      N1155   1.438       .  S
C1151      C1152   1.402       .  A
C1151      H1156   1.084       .  S
C1152      C1153   1.410       .  A
C1152      C1157   1.490       .  S
C1153      C1154   1.412       .  A
C1153      N1158   1.437       .  S
C1154      H1159   1.083       .  S
N1155      H1175   1.045       .  S
N1155      H1176   1.046   1_655  S
C1157      C1160   1.403       .  A
C1157      C1164   1.411       .  A
N1158      H1173   1.046       .  S
N1158      H1174   1.046       .  S
C1160      C1161   1.411       .  A
C1160      H1165   1.084       .  S
C1161      C1162   1.413       .  A
C1161      N1166   1.437       .  S
C1162      C1163   1.404       .  A
C1163      C1164   1.409       .  A
C1163      H1167   1.080       .  S
C1164      N1168   1.437       .  S
N1166      H1169   1.045       .  S
N1166      H1170   1.046       .  S
N1168      H1171   1.046       .  S
N1168      H1172   1.046       .  S
C1177      C1178   1.417       .  A
C1177      C1182   1.403       .  A
C1178      C1179   1.402       .  A
C1178      N1183   1.438       .  S
C1179      C1180   1.403       .  A
C1179      H1184   1.084       .  S
C1180      C1181   1.406       .  A
C1180      C1185   1.477       .  S
C1181      C1182   1.404       .  A
C1181      N1186   1.437       .  S
C1182      H1187   1.084       .  S
N1183      H1203   1.043       .  S
N1183      H1204   1.045       .  S
C1185      C1188   1.402       .  A
C1185      C1192   1.407       .  A
N1186      H1201   1.046       .  S
N1186      H1202   1.045       .  S
C1188      C1189   1.401       .  A
C1188      H1193   1.084       .  S
C1189      C1190   1.414       .  A
C1189      N1194   1.433       .  S
C1190      C1191   1.405       .  A
C1191      C1192   1.404       .  A
C1191      H1195   1.084       .  S
C1192      N1196   1.438       .  S
N1194      H1197   1.044       .  S
N1194      H1198   1.046       .  S
N1196      H1199   1.046       .  S
N1196      H1200   1.045       .  S
C1205      C1206   1.412       .  A
C1205      C1210   1.401       .  A
C1206      C1207   1.399       .  A
C1206      N1211   1.439       .  S
C1207      C1208   1.398       .  A
C1207      H1212   1.084       .  S
C1208      C1209   1.415       .  A
C1208      C1213   1.466       .  S
C1209      C1210   1.395       .  A
C1209      N1214   1.439       .  S
C1210      H1215   1.082       .  S
N1211      H1231   1.046       .  S
N1211      H1232   1.042       .  S
C1213      C1216   1.398       .  A
C1213      C1220   1.406       .  A
N1214      H1229   1.046       .  S
N1214      H1230   1.043       .  S
C1216      C1217   1.396       .  A
C1216      H1221   1.085       .  S
C1217      C1218   1.413       .  A
C1217      N1222   1.433       .  S
C1218      C1219   1.407       .  A
C1219      C1220   1.402       .  A
C1219      H1223   1.083       .  S
C1220      N1224   1.438       .  S
N1222      H1225   1.046       .  S
N1222      H1226   1.046       .  S
N1224      H1227   1.046       .  S
N1224      H1228   1.045       .  S
C1233      C1234   1.410       .  A
C1233      C1238   1.404       .  A
C1234      C1235   1.402       .  A
C1234      N1239   1.432       .  S
C1235      C1236   1.400       .  A
C1235      H1240   1.084       .  S
C1236      C1237   1.409       .  A
C1236      C1241   1.480       .  S
C1237      C1238   1.408       .  A
C1237      N1242   1.437       .  S
C1238      H1243   1.083       .  S
N1239      H1259   1.045       .  S
N1239      H1260   1.045       .  S
C1241      C1244   1.400       .  A
C1241      C1248   1.419       .  A
N1242      H1257   1.046       .  S
N1242      H1258   1.045       .  S
C1244      C1245   1.399       .  A
C1244      H1249   1.084       .  S
C1245      C1246   1.414       .  A
C1245      N1250   1.431       .  S
C1246      C1247   1.401       .  A
C1247      C1248   1.403       .  A
C1247      H1251   1.084       .  S
C1248      N1252   1.439       .  S
N1250      H1253   1.041       .  S
N1250      H1254   1.046       .  S
N1252      H1255   1.046       .  S
N1252      H1256   1.043       .  S
C1261      C1262   1.412       .  A
C1261      C1266   1.403       .  A
C1262      C1263   1.412       .  A
C1262      N1267   1.437       .  S
C1263      C1264   1.408       .  A
C1263      H1268   1.083       .  S
C1264      C1265   1.419       .  A
C1264      C1269   1.506       .  S
C1265      C1266   1.408       .  A
C1265      N1270   1.438       .  S
C1266      H1271   1.083       .  S
N1267      H1287   1.045       .  S
N1267      H1288   1.046       .  S
C1269      C1272   1.398       .  A
C1269      C1276   1.420       .  A
N1270      H1285   1.046       .  S
N1270      H1286   1.046       .  S
C1272      C1273   1.398       .  A
C1272      H1277   1.084       .  S
C1273      C1274   1.424       .  A
C1273      N1278   1.434       .  S
C1274      C1275   1.407       .  A
C1275      C1276   1.421       .  A
C1275      H1279   1.083       .  S
C1276      N1280   1.437       .  S
N1278      H1281   1.046       .  S
N1278      H1282   1.046       .  S
N1280      H1283   1.046       .  S
N1280      H1284   1.046       .  S
C1289      C1290   1.405       .  A
C1289      C1294   1.403       .  A
C1290      C1291   1.400       .  A
C1290      N1295   1.431       .  S
C1291      C1292   1.405       .  A
C1291      H1296   1.084       .  S
C1292      C1293   1.408       .  A
C1292      C1297   1.475       .  S
C1293      C1294   1.398       .  A
C1293      N1298   1.438       .  S
C1294      H1299   1.084       .  S
N1295      H1315   1.045       .  S
N1295      H1316   1.046       .  S
C1297      C1300   1.404       .  A
C1297      C1304   1.409       .  A
N1298      H1313   1.046       .  S
N1298      H1314   1.046       .  S
C1300      C1301   1.403       .  A
C1300      H1305   1.084       .  S
C1301      C1302   1.408       .  A
C1301      N1306   1.437       .  S
C1302      C1303   1.403       .  A
C1303      C1304   1.399       .  A
C1303      H1307   1.084       .  S
C1304      N1308   1.439       .  S
N1306      H1309   1.046       .  S
N1306      H1310   1.045       .  S
N1308      H1311   1.046       .  S
N1308      H1312   1.045       .  S
C1317      C1318   1.411       .  A
C1317      C1322   1.409       .  A
C1318      C1319   1.397       .  A
C1318      N1323   1.433       .  S
C1319      C1320   1.402       .  A
C1319      H1324   1.084       .  S
C1320      C1321   1.416       .  A
C1320      C1325   1.498   1_556  S
C1321      C1322   1.418       .  A
C1321      N1326   1.437       .  S
C1322      H1327   1.082       .  S
N1323      H1343   1.046       .  S
N1323      H1344   1.045       .  S
C1325      C1328   1.409       .  A
C1325      C1332   1.412       .  A
N1326      H1341   1.046       .  S
N1326      H1342   1.046       .  S
C1328      C1329   1.415       .  A
C1328      H1333   1.083       .  S
C1329      C1330   1.413       .  A
C1329      N1334   1.430       .  S
C1330      C1331   1.403       .  A
C1331      C1332   1.401       .  A
C1331      H1335   1.083       .  S
C1332      N1336   1.439       .  S
N1334      H1337   1.046       .  S
N1334      H1338   1.045       .  S
N1336      H1339   1.046       .  S
N1336      H1340   1.046       .  S
C1345      C1346   1.414       .  A
C1345      C1350   1.401       .  A
C1346      C1347   1.401       .  A
C1346      N1351   1.432       .  S
C1347      C1348   1.400       .  A
C1347      H1352   1.084       .  S
C1348      C1349   1.409       .  A
C1348      C1353   1.480       .  S
C1349      C1350   1.403       .  A
C1349      N1354   1.432       .  S
C1350      H1355   1.084       .  S
N1351      H1371   1.045       .  S
N1351      H1372   1.044       .  S
C1353      C1356   1.401       .  A
C1353      C1360   1.410       .  A
N1354      H1369   1.046       .  S
N1354      H1370   1.046       .  S
C1356      C1357   1.406       .  A
C1356      H1361   1.084       .  S
C1357      C1358   1.409       .  A
C1357      N1362   1.438       .  S
C1358      C1359   1.402       .  A
C1359      C1360   1.406       .  A
C1359      H1363   1.083       .  S
C1360      N1364   1.437       .  S
N1362      H1365   1.046       .  S
N1362      H1366   1.045       .  S
N1364      H1367   1.046       .  S
N1364      H1368   1.044       .  S
C1373      C1374   1.410       .  A
C1373      C1378   1.402       .  A
C1374      C1375   1.406       .  A
C1374      N1379   1.432       .  S
C1375      C1376   1.404       .  A
C1375      H1380   1.083       .  S
C1376      C1377   1.416       .  A
C1376      C1381   1.496       .  S
C1377      C1378   1.408       .  A
C1377      N1382   1.438       .  S
C1378      H1383   1.082       .  S
N1379      H1399   1.045       .  S
N1379      H1400   1.044       .  S
C1381      C1384   1.404       .  A
C1381      C1388   1.415       .  A
N1382      H1397   1.046       .  S
N1382      H1398   1.046       .  S
C1384      C1385   1.401       .  A
C1384      H1389   1.084       .  S
C1385      C1386   1.407       .  A
C1385      N1390   1.431       .  S
C1386      C1387   1.406       .  A
C1387      C1388   1.414       .  A
C1387      H1391   1.084       .  S
C1388      N1392   1.437       .  S
N1390      H1393   1.045       .  S
N1390      H1394   1.043   1_554  S
N1392      H1395   1.046       .  S
N1392      H1396   1.046       .  S
C1401      C1402   1.411       .  A
C1401      C1406   1.405       .  A
C1402      C1403   1.408       .  A
C1402      N1407   1.438       .  S
C1403      C1404   1.406       .  A
C1403      H1408   1.083       .  S
C1404      C1405   1.412       .  A
C1404      C1409   1.496       .  S
C1405      C1406   1.405       .  A
C1405      N1410   1.432       .  S
C1406      H1411   1.081       .  S
N1407      H1427   1.045       .  S
N1407      H1428   1.045       .  S
C1409      C1412   1.406       .  A
C1409      C1416   1.414       .  A
N1410      H1425   1.046       .  S
N1410      H1426   1.046       .  S
C1412      C1413   1.405       .  A
C1412      H1417   1.084       .  S
C1413      C1414   1.408       .  A
C1413      N1418   1.432       .  S
C1414      C1415   1.404       .  A
C1415      C1416   1.407       .  A
C1415      H1419   1.084       .  S
C1416      N1420   1.432       .  S
N1418      H1421   1.045       .  S
N1418      H1422   1.045       .  S
N1420      H1423   1.046       .  S
N1420      H1424   1.046       .  S
C1429      C1430   1.420       .  A
C1429      C1434   1.408       .  A
C1430      C1431   1.399       .  A
C1430      N1435   1.433       .  S
C1431      C1432   1.397       .  A
C1431      H1436   1.084       .  S
C1432      C1433   1.411       .  A
C1432      C1437   1.483       .  S
C1433      C1434   1.410       .  A
C1433      N1438   1.437       .  S
C1434      H1439   1.083       .  S
N1435      H1455   1.046       .  S
N1435      H1456   1.046       .  S
C1437      C1440   1.403       .  A
C1437      C1444   1.412       .  A
N1438      H1453   1.046       .  S
N1438      H1454   1.046       .  S
C1440      C1441   1.401       .  A
C1440      H1445   1.084       .  S
C1441      C1442   1.405       .  A
C1441      N1446   1.432       .  S
C1442      C1443   1.403       .  A
C1443      C1444   1.405       .  A
C1443      H1447   1.084       .  S
C1444      N1448   1.438       .  S
N1446      H1449   1.045       .  S
N1446      H1450   1.046       .  S
N1448      H1451   1.046       .  S
N1448      H1452   1.046       .  S
C1457      C1458   1.411       .  A
C1457      C1462   1.403       .  A
C1458      C1459   1.413       .  A
C1458      N1463   1.431       .  S
C1459      C1460   1.409       .  A
C1459      H1464   1.082       .  S
C1460      C1461   1.412       .  A
C1460      C1465   1.495   1_655  S
C1461      C1462   1.399       .  A
C1461      N1466   1.439       .  S
C1462      H1467   1.084       .  S
N1463      H1483   1.045       .  S
N1463      H1484   1.045       .  S
C1465      C1468   1.401       .  A
C1465      C1472   1.418       .  A
N1466      H1481   1.046       .  S
N1466      H1482   1.046       .  S
C1468      C1469   1.395       .  A
C1468      H1473   1.084       .  S
C1469      C1470   1.411       .  A
C1469      N1474   1.434       .  S
C1470      C1471   1.409       .  A
C1471      C1472   1.412       .  A
C1471      H1475   1.083       .  S
C1472      N1476   1.431       .  S
N1474      H1477   1.046       .  S
N1474      H1478   1.045       .  S
N1476      H1479   1.043       .  S
N1476      H1480   1.046       .  S
C1485      C1486   1.410       .  A
C1485      C1490   1.404       .  A
C1486      C1487   1.402       .  A
C1486      N1491   1.433       .  S
C1487      C1488   1.401       .  A
C1487      H1492   1.084       .  S
C1488      C1489   1.410       .  A
C1488      C1493   1.485       .  S
C1489      C1490   1.408       .  A
C1489      N1494   1.432       .  S
C1490      H1495   1.083       .  S
N1491      H1511   1.045       .  S
N1491      H1512   1.045       .  S
C1493      C1496   1.403       .  A
C1493      C1500   1.407       .  A
N1494      H1509   1.046       .  S
N1494      H1510   1.046       .  S
C1496      C1497   1.405       .  A
C1496      H1501   1.084       .  S
C1497      C1498   1.412       .  A
C1497      N1502   1.432       .  S
C1498      C1499   1.409       .  A
C1499      C1500   1.406       .  A
C1499      H1503   1.084       .  S
C1500      N1504   1.432       .  S
N1502      H1505   1.046       .  S
N1502      H1506   1.046       .  S
N1504      H1507   1.045       .  S
N1504      H1508   1.044       .  S
C1513      C1514   1.411       .  A
C1513      C1518   1.406       .  A
C1514      C1515   1.409       .  A
C1514      N1519   1.432       .  S
C1515      C1516   1.404       .  A
C1515      H1520   1.084       .  S
C1516      C1517   1.416       .  A
C1516      C1521   1.494       .  S
C1517      C1518   1.405       .  A
C1517      N1522   1.431       .  S
C1518      H1523   1.084       .  S
N1519      H1539   1.046       .  S
N1519      H1540   1.045       .  S
C1521      C1524   1.398       .  A
C1521      C1528   1.413       .  A
N1522      H1537   1.045       .  S
N1522      H1538   1.045       .  S
C1524      C1525   1.403       .  A
C1524      H1529   1.084       .  S
C1525      C1526   1.416       .  A
C1525      N1530   1.432       .  S
C1526      C1527   1.406       .  A
C1527      C1528   1.418       .  A
C1527      H1531   1.083       .  S
C1528      N1532   1.431       .  S
N1530      H1533   1.046       .  S
N1530      H1534   1.045       .  S
N1532      H1535   1.045       .  S
N1532      H1536   1.046       .  S
C1541      C1542   1.413       .  A
C1541      C1546   1.404       .  A
C1542      C1543   1.399       .  A
C1542      N1547   1.434       .  S
C1543      C1544   1.397       .  A
C1543      H1548   1.085       .  S
C1544      C1545   1.413       .  A
C1544      C1549   1.482       .  S
C1545      C1546   1.415       .  A
C1545      N1550   1.437       .  S
C1546      H1551   1.083       .  S
N1547      H1567   1.046       .  S
N1547      H1568   1.046       .  S
C1549      C1552   1.401       .  A
C1549      C1556   1.412       .  A
N1550      H1565   1.045       .  S
N1550      H1566   1.046       .  S
C1552      C1553   1.404       .  A
C1552      H1557   1.084       .  S
C1553      C1554   1.409       .  A
C1553      N1558   1.432       .  S
C1554      C1555   1.403       .  A
C1555      C1556   1.407       .  A
C1555      H1559   1.084       .  S
C1556      N1560   1.437       .  S
N1558      H1561   1.046       .  S
N1558      H1562   1.045       .  S
N1560      H1563   1.046       .  S
N1560      H1564   1.045       .  S
C1569      C1570   1.410       .  A
C1569      C1574   1.406       .  A
C1570      C1571   1.414       .  A
C1570      N1575   1.436       .  S
C1571      C1572   1.409       .  A
C1571      H1576   1.083       .  S
C1572      C1573   1.410       .  A
C1572      C1577   1.499       .  S
C1573      C1574   1.406       .  A
C1573      N1578   1.433       .  S
C1574      H1579   1.084       .  S
N1575      H1595   1.045       .  S
N1575      H1596   1.046       .  S
C1577      C1580   1.405       .  A
C1577      C1584   1.412       .  A
N1578      H1593   1.046       .  S
N1578      H1594   1.046       .  S
C1580      C1581   1.410       .  A
C1580      H1585   1.084       .  S
C1581      C1582   1.412       .  A
C1581      N1586   1.432       .  S
C1582      C1583   1.406       .  A
C1583      C1584   1.407       .  A
C1583      H1587   1.082       .  S
C1584      N1588   1.432       .  S
N1586      H1589   1.045       .  S
N1586      H1590   1.045       .  S
N1588      H1591   1.045       .  S
N1588      H1592   1.046       .  S
C1597      C1598   1.412       .  A
C1597      C1602   1.409       .  A
C1598      C1599   1.395       .  A
C1598      N1603   1.433       .  S
C1599      C1600   1.399       .  A
C1599      H1604   1.085       .  S
C1600      C1601   1.413       .  A
C1600      C1605   1.488   1_556  S
C1601      C1602   1.416       .  A
C1601      N1606   1.437       .  S
C1602      H1607   1.083       .  S
N1603      H1623   1.045       .  S
N1603      H1624   1.046       .  S
C1605      C1608   1.404       .  A
C1605      C1612   1.412       .  A
N1606      H1621   1.046       .  S
N1606      H1622   1.046       .  S
C1608      C1609   1.410       .  A
C1608      H1613   1.083       .  S
C1609      C1610   1.412       .  A
C1609      N1614   1.431       .  S
C1610      C1611   1.403       .  A
C1611      C1612   1.401       .  A
C1611      H1615   1.084       .  S
C1612      N1616   1.439       .  S
N1614      H1617   1.045       .  S
N1614      H1618   1.045       .  S
N1616      H1619   1.046       .  S
N1616      H1620   1.046       .  S
C1625      C1626   1.411       .  A
C1625      C1630   1.409       .  A
C1626      C1627   1.400       .  A
C1626      N1631   1.433       .  S
C1627      C1628   1.404       .  A
C1627      H1632   1.084       .  S
C1628      C1629   1.418       .  A
C1628      C1633   1.505   1_455  S
C1629      C1630   1.420       .  A
C1629      N1634   1.436       .  S
C1630      H1635   1.083       .  S
N1631      H1651   1.045       .  S
N1631      H1652   1.045       .  S
C1633      C1636   1.411       .  A
C1633      C1640   1.411       .  A
N1634      H1649   1.046       .  S
N1634      H1650   1.046       .  S
C1636      C1637   1.416       .  A
C1636      H1641   1.083       .  S
C1637      C1638   1.421       .  A
C1637      N1642   1.436       .  S
C1638      C1639   1.405       .  A
C1639      C1640   1.399       .  A
C1639      H1643   1.084       .  S
C1640      N1644   1.433       .  S
N1642      H1645   1.043       .  S
N1642      H1646   1.045       .  S
N1644      H1647   1.046       .  S
N1644      H1648   1.046       .  S
C1653      C1654   1.421       .  A
C1653      C1658   1.411       .  A
C1654      C1655   1.417       .  A
C1654      N1659   1.437       .  S
C1655      C1656   1.404       .  A
C1655      H1660   1.083       .  S
C1656      C1657   1.409       .  A
C1656      C1661   1.500       .  S
C1657      C1658   1.412       .  A
C1657      N1662   1.436       .  S
C1658      H1663   1.083       .  S
N1659      H1679   1.046       .  S
N1659      H1680   1.046       .  S
C1661      C1664   1.408       .  A
C1661      C1668   1.411       .  A
N1662      H1677   1.045       .  S
N1662      H1678   1.046       .  S
C1664      C1665   1.413       .  A
C1664      H1669   1.084       .  S
C1665      C1666   1.408       .  A
C1665      N1670   1.430       .  S
C1666      C1667   1.407       .  A
C1667      C1668   1.413       .  A
C1667      H1671   1.084       .  S
C1668      N1672   1.437       .  S
N1670      H1673   1.045       .  S
N1670      H1674   1.045       .  S
N1672      H1675   1.046       .  S
N1672      H1676   1.046       .  S
C1681      C1682   1.410       .  A
C1681      C1686   1.409       .  A
C1682      C1683   1.418       .  A
C1682      N1687   1.436       .  S
C1683      C1684   1.411       .  A
C1683      H1688   1.083       .  S
C1684      C1685   1.407       .  A
C1684      C1689   1.493       .  S
C1685      C1686   1.402       .  A
C1685      N1690   1.439       .  S
C1686      H1691   1.083       .  S
N1687      H1707   1.045       .  S
N1687      H1708   1.046       .  S
C1689      C1692   1.407       .  A
C1689      C1696   1.412       .  A
N1690      H1705   1.046       .  S
N1690      H1706   1.046       .  S
C1692      C1693   1.407       .  A
C1692      H1697   1.084       .  S
C1693      C1694   1.419       .  A
C1693      N1698   1.439       .  S
C1694      C1695   1.404       .  A
C1695      C1696   1.401       .  A
C1695      H1699   1.084       .  S
C1696      N1700   1.432       .  S
N1698      H1701   1.045       .  S
N1698      H1702   1.044       .  S
N1700      H1703   1.044       .  S
N1700      H1704   1.046       .  S
C1709      C1710   1.413       .  A
C1709      C1714   1.404       .  A
C1710      C1711   1.411       .  A
C1710      N1715   1.437       .  S
C1711      C1712   1.404       .  A
C1711      H1716   1.083       .  S
C1712      C1713   1.411       .  A
C1712      C1717   1.487       .  S
C1713      C1714   1.401       .  A
C1713      N1718   1.439       .  S
C1714      H1719   1.076       .  S
N1715      H1735   1.045       .  S
N1715      H1736   1.045       .  S
C1717      C1720   1.401       .  A
C1717      C1724   1.408       .  A
N1718      H1733   1.045       .  S
N1718      H1734   1.046       .  S
C1720      C1721   1.408       .  A
C1720      H1725   1.084       .  S
C1721      C1722   1.418       .  A
C1721      N1726   1.438       .  S
C1722      C1723   1.406       .  A
C1723      C1724   1.402       .  A
C1723      H1727   1.084       .  S
C1724      N1728   1.433       .  S
N1726      H1729   1.046       .  S
N1726      H1730   1.045       .  S
N1728      H1731   1.045       .  S
N1728      H1732   1.046       .  S
C1737      C1738   1.416       .  A
C1737      C1742   1.409       .  A
C1738      C1739   1.405       .  A
C1738      N1743   1.431       .  S
C1739      C1740   1.401       .  A
C1739      H1744   1.084       .  S
C1740      C1741   1.407       .  A
C1740      C1745   1.485       .  S
C1741      C1742   1.408       .  A
C1741      N1746   1.437       .  S
C1742      H1747   1.084       .  S
N1743      H1763   1.045       .  S
N1743      H1764   1.046       .  S
C1745      C1748   1.406       .  A
C1745      C1752   1.405       .  A
N1746      H1761   1.046       .  S
N1746      H1762   1.046       .  S
C1748      C1749   1.414       .  A
C1748      H1753   1.083       .  S
C1749      C1750   1.413       .  A
C1749      N1754   1.431       .  S
C1750      C1751   1.410       .  A
C1751      C1752   1.400       .  A
C1751      H1755   1.081       .  S
C1752      N1756   1.439       .  S
N1754      H1757   1.046       .  S
N1754      H1758   1.045       .  S
N1756      H1759   1.046       .  S
N1756      H1760   1.046       .  S
C1765      C1766   1.408       .  A
C1765      C1770   1.400       .  A
C1766      C1767   1.403       .  A
C1766      N1771   1.432       .  S
C1767      C1768   1.403       .  A
C1767      H1772   1.084       .  S
C1768      C1769   1.413       .  A
C1768      C1773   1.483       .  S
C1769      C1770   1.402       .  A
C1769      N1774   1.438       .  S
C1770      H1775   1.083       .  S
N1771      H1791   1.045       .  S
N1771      H1792   1.045       .  S
C1773      C1776   1.400       .  A
C1773      C1780   1.414       .  A
N1774      H1789   1.046       .  S
N1774      H1790   1.046       .  S
C1776      C1777   1.395       .  A
C1776      H1781   1.084       .  S
C1777      C1778   1.408       .  A
C1777      N1782   1.434       .  S
C1778      C1779   1.402       .  A
C1779      C1780   1.411       .  A
C1779      H1783   1.084       .  S
C1780      N1784   1.437       .  S
N1782      H1785   1.045       .  S
N1782      H1786   1.046       .  S
N1784      H1787   1.046       .  S
N1784      H1788   1.046       .  S
C1793      C1794   1.411       .  A
C1793      C1798   1.406       .  A
C1794      C1795   1.411       .  A
C1794      N1799   1.432       .  S
C1795      C1796   1.405       .  A
C1795      H1800   1.084       .  S
C1796      C1797   1.405       .  A
C1796      C1801   1.484       .  S
C1797      C1798   1.401       .  A
C1797      N1802   1.433       .  S
C1798      H1803   1.084       .  S
N1799      H1819   1.045       .  S
N1799      H1820   1.046       .  S
C1801      C1804   1.402       .  A
C1801      C1808   1.407       .  A
N1802      H1817   1.046       .  S
N1802      H1818   1.046       .  S
C1804      C1805   1.407       .  A
C1804      H1809   1.084       .  S
C1805      C1806   1.420       .  A
C1805      N1810   1.439       .  S
C1806      C1807   1.403       .  A
C1807      C1808   1.401       .  A
C1807      H1811   1.082       .  S
C1808      N1812   1.432       .  S
N1810      H1813   1.045       .  S
N1810      H1814   1.043       .  S
N1812      H1815   1.045       .  S
N1812      H1816   1.046       .  S
C1821      C1822   1.406       .  A
C1821      C1826   1.402       .  A
C1822      C1823   1.406       .  A
C1822      N1827   1.431       .  S
C1823      C1824   1.409       .  A
C1823      H1828   1.083       .  S
C1824      C1825   1.415       .  A
C1824      C1829   1.496       .  S
C1825      C1826   1.407       .  A
C1825      N1830   1.438       .  S
C1826      H1831   1.084       .  S
N1827      H1847   1.045       .  S
N1827      H1848   1.045       .  S
C1829      C1832   1.404       .  A
C1829      C1836   1.415       .  A
N1830      H1845   1.045       .  S
N1830      H1846   1.046       .  S
C1832      C1833   1.403       .  A
C1832      H1837   1.083       .  S
C1833      C1834   1.414       .  A
C1833      N1838   1.438       .  S
C1834      C1835   1.408       .  A
C1835      C1836   1.407       .  A
C1835      H1839   1.083       .  S
C1836      N1840   1.438       .  S
N1838      H1841   1.046       .  S
N1838      H1842   1.046       .  S
N1840      H1843   1.046       .  S
N1840      H1844   1.045       .  S
C1849      C1850   1.416       .  A
C1849      C1854   1.402       .  A
C1850      C1851   1.405       .  A
C1850      N1855   1.438       .  S
C1851      C1852   1.405       .  A
C1851      H1856   1.084       .  S
C1852      C1853   1.417       .  A
C1852      C1857   1.488       .  S
C1853      C1854   1.402       .  A
C1853      N1858   1.439       .  S
C1854      H1859   1.084       .  S
N1855      H1875   1.043       .  S
N1855      H1876   1.045       .  S
C1857      C1860   1.405       .  A
C1857      C1864   1.409       .  A
N1858      H1873   1.046       .  S
N1858      H1874   1.043       .  S
C1860      C1861   1.411       .  A
C1860      H1865   1.084       .  S
C1861      C1862   1.410       .  A
C1861      N1866   1.436       .  S
C1862      C1863   1.404       .  A
C1863      C1864   1.406       .  A
C1863      H1867   1.084       .  S
C1864      N1868   1.438       .  S
N1866      H1869   1.046   1_554  S
N1866      H1870   1.045       .  S
N1868      H1871   1.046       .  S
N1868      H1872   1.046       .  S
C1877      C1878   1.410       .  A
C1877      C1882   1.400       .  A
C1878      C1879   1.418       .  A
C1878      N1883   1.436       .  S
C1879      C1880   1.411       .  A
C1879      H1884   1.083       .  S
C1880      C1881   1.416       .  A
C1880      C1885   1.502   1_554  S
C1881      C1882   1.400       .  A
C1881      N1886   1.439       .  S
C1882      H1887   1.085       .  S
N1883      H1903   1.046       .  S
N1883      H1904   1.045       .  S
C1885      C1888   1.400       .  A
C1885      C1892   1.415       .  A
N1886      H1901   1.046       .  S
N1886      H1902   1.046   1_554  S
C1888      C1889   1.399       .  A
C1888      H1893   1.084       .  S
C1889      C1890   1.413       .  A
C1889      N1894   1.429       .  S
C1890      C1891   1.411       .  A
C1891      C1892   1.419       .  A
C1891      H1895   1.082       .  S
C1892      N1896   1.436       .  S
N1894      H1897   1.045       .  S
N1894      H1898   1.045       .  S
N1896      H1899   1.046       .  S
N1896      H1900   1.046       .  S
C1905      C1906   1.410       .  A
C1905      C1910   1.404       .  A
C1906      C1907   1.407       .  A
C1906      N1911   1.432       .  S
C1907      C1908   1.402       .  A
C1907      H1912   1.084       .  S
C1908      C1909   1.404       .  A
C1908      C1913   1.474       .  S
C1909      C1910   1.398       .  A
C1909      N1914   1.433       .  S
C1910      H1915   1.083       .  S
N1911      H1931   1.046       .  S
N1911      H1932   1.045       .  S
C1913      C1916   1.397       .  A
C1913      C1920   1.414       .  A
N1914      H1929   1.045       .  S
N1914      H1930   1.046       .  S
C1916      C1917   1.400       .  A
C1916      H1921   1.084       .  S
C1917      C1918   1.411       .  A
C1917      N1922   1.433       .  S
C1918      C1919   1.402       .  A
C1919      C1920   1.399       .  A
C1919      H1923   1.082       .  S
C1920      N1924   1.433       .  S
N1922      H1925   1.046       .  S
N1922      H1926   1.045       .  S
N1924      H1927   1.045       .  S
N1924      H1928   1.045       .  S
C1933      C1934   1.421       .  A
C1933      C1938   1.409       .  A
C1934      C1935   1.403       .  A
C1934      N1939   1.432       .  S
C1935      C1936   1.402       .  A
C1935      H1940   1.084       .  S
C1936      C1937   1.409       .  A
C1936      C1941   1.490       .  S
C1937      C1938   1.409       .  A
C1937      N1942   1.437       .  S
C1938      H1943   1.083       .  S
N1939      H1959   1.045       .  S
N1939      H1960   1.045       .  S
C1941      C1944   1.405       .  A
C1941      C1948   1.409       .  A
N1942      H1957   1.046       .  S
N1942      H1958   1.046       .  S
C1944      C1945   1.405       .  A
C1944      H1949   1.084       .  S
C1945      C1946   1.418       .  A
C1945      N1950   1.438       .  S
C1946      C1947   1.405       .  A
C1947      C1948   1.408       .  A
C1947      H1951   1.084       .  S
C1948      N1952   1.437       .  S
N1950      H1953   1.046       .  S
N1950      H1954   1.043       .  S
N1952      H1955   1.046       .  S
N1952      H1956   1.046       .  S
C1961      C1962   1.420       .  A
C1961      C1966   1.409       .  A
C1962      C1963   1.402       .  A
C1962      N1967   1.433       .  S
C1963      C1964   1.398       .  A
C1963      H1968   1.084       .  S
C1964      C1965   1.410       .  A
C1964      C1969   1.486       .  S
C1965      C1966   1.413       .  A
C1965      N1970   1.438       .  S
C1966      H1971   1.083       .  S
N1967      H1987   1.046       .  S
N1967      H1988   1.045       .  S
C1969      C1972   1.401       .  A
C1969      C1976   1.409       .  A
N1970      H1985   1.046       .  S
N1970      H1986   1.046       .  S
C1972      C1973   1.405       .  A
C1972      H1977   1.084       .  S
C1973      C1974   1.420       .  A
C1973      N1978   1.439       .  S
C1974      C1975   1.402       .  A
C1975      C1976   1.402       .  A
C1975      H1979   1.084       .  S
C1976      N1980   1.431       .  S
N1978      H1981   1.046       .  S
N1978      H1982   1.043       .  S
N1980      H1983   1.046       .  S
N1980      H1984   1.046       .  S
C1989      C1990   1.413       .  A
C1989      C1994   1.404       .  A
C1990      C1991   1.405       .  A
C1990      N1995   1.438       .  S
C1991      C1992   1.399       .  A
C1991      H1996   1.084       .  S
C1992      C1993   1.409       .  A
C1992      C1997   1.472       .  S
C1993      C1994   1.394       .  A
C1993      N1998   1.434       .  S
C1994      H1999   1.081       .  S
N1995      H2015   1.045       .  S
N1995      H2016   1.046       .  S
C1997      C2000   1.397       .  A
C1997      C2004   1.406       .  A
N1998      H2013   1.045       .  S
N1998      H2014   1.045       .  S
C2000      C2001   1.402       .  A
C2000      H2005   1.084       .  S
C2001      C2002   1.416       .  A
C2001      N2006   1.433       .  S
C2002      C2003   1.407       .  A
C2003      C2004   1.404       .  A
C2003      H2007   1.083       .  S
C2004      N2008   1.438       .  S
N2006      H2009   1.045       .  S
N2006      H2010   1.046       .  S
N2008      H2011   1.044       .  S
N2008      H2012   1.045       .  S
C2017      C2018   1.409       .  A
C2017      C2022   1.405       .  A
C2018      C2019   1.397       .  A
C2018      N2023   1.431       .  S
C2019      C2020   1.403       .  A
C2019      H2024   1.084       .  S
C2020      C2021   1.415       .  A
C2020      C2025   1.497   1_565  S
C2021      C2022   1.416       .  A
C2021      N2026   1.430       .  S
C2022      H2027   1.083       .  S
N2023      H2043   1.046       .  S
N2023      H2044   1.046       .  S
C2025      C2028   1.403       .  A
C2025      C2032   1.420       .  A
N2026      H2041   1.043       .  S
N2026      H2042   1.046       .  S
C2028      C2029   1.397       .  A
C2028      H2033   1.084       .  S
C2029      C2030   1.412       .  A
C2029      N2034   1.433       .  S
C2030      C2031   1.408       .  A
C2031      C2032   1.410       .  A
C2031      H2035   1.083       .  S
C2032      N2036   1.432       .  S
N2034      H2037   1.046       .  S
N2034      H2038   1.045       .  S
N2036      H2039   1.041       .  S
N2036      H2040   1.046       .  S
C2045      C2046   1.412       .  A
C2045      C2050   1.408       .  A
C2046      C2047   1.412       .  A
C2046      N2051   1.432       .  S
C2047      C2048   1.408       .  A
C2047      H2052   1.084       .  S
C2048      C2049   1.415       .  A
C2048      C2053   1.507       .  S
C2049      C2050   1.413       .  A
C2049      N2054   1.438       .  S
C2050      H2055   1.083       .  S
N2051      H2071   1.045       .  S
N2051      H2072   1.046       .  S
C2053      C2056   1.408       .  A
C2053      C2060   1.414       .  A
N2054      H2069   1.045       .  S
N2054      H2070   1.046       .  S
C2056      C2057   1.409       .  A
C2056      H2061   1.084       .  S
C2057      C2058   1.420       .  A
C2057      N2062   1.438       .  S
C2058      C2059   1.406       .  A
C2059      C2060   1.412       .  A
C2059      H2063   1.084       .  S
C2060      N2064   1.437       .  S
N2062      H2065   1.045       .  S
N2062      H2066   1.042       .  S
N2064      H2067   1.046       .  S
N2064      H2068   1.045       .  S
C2073      C2074   1.409       .  A
C2073      C2078   1.402       .  A
C2074      C2075   1.406       .  A
C2074      N2079   1.438       .  S
C2075      C2076   1.403       .  A
C2075      H2080   1.084       .  S
C2076      C2077   1.408       .  A
C2076      C2081   1.475       .  S
C2077      C2078   1.399       .  A
C2077      N2082   1.438       .  S
C2078      H2083   1.083       .  S
N2079      H2099   1.046       .  S
N2079      H2100   1.046       .  S
C2081      C2084   1.399       .  A
C2081      C2088   1.410       .  A
N2082      H2097   1.045       .  S
N2082      H2098   1.046       .  S
C2084      C2085   1.402       .  A
C2084      H2089   1.084       .  S
C2085      C2086   1.411       .  A
C2085      N2090   1.438       .  S
C2086      C2087   1.399       .  A
C2087      C2088   1.399       .  A
C2087      H2091   1.083       .  S
C2088      N2092   1.433       .  S
N2090      H2093   1.046       .  S
N2090      H2094   1.045       .  S
N2092      H2095   1.046       .  S
N2092      H2096   1.046       .  S
C2101      C2102   1.407       .  A
C2101      C2106   1.403       .  A
C2102      C2103   1.410       .  A
C2102      N2107   1.436       .  S
C2103      C2104   1.409       .  A
C2103      H2108   1.083       .  S
C2104      C2105   1.413       .  A
C2104      C2109   1.493       .  S
C2105      C2106   1.403       .  A
C2105      N2110   1.439       .  S
C2106      H2111   1.085       .  S
N2107      H2127   1.046       .  S
N2107      H2128   1.046       .  S
C2109      C2112   1.405       .  A
C2109      C2116   1.414       .  A
N2110      H2125   1.046       .  S
N2110      H2126   1.046       .  S
C2112      C2113   1.399       .  A
C2112      H2117   1.084       .  S
C2113      C2114   1.406       .  A
C2113      N2118   1.430       .  S
C2114      C2115   1.404       .  A
C2115      C2116   1.410       .  A
C2115      H2119   1.084       .  S
C2116      N2120   1.437       .  S
N2118      H2121   1.045       .  S
N2118      H2122   1.045       .  S
N2120      H2123   1.046       .  S
N2120      H2124   1.045       .  S
C2129      C2130   1.413       .  A
C2129      C2134   1.405       .  A
C2130      C2131   1.406       .  A
C2130      N2135   1.433       .  S
C2131      C2132   1.404       .  A
C2131      H2136   1.084       .  S
C2132      C2133   1.410       .  A
C2132      C2137   1.488       .  S
C2133      C2134   1.410       .  A
C2133      N2138   1.437       .  S
C2134      H2139   1.084       .  S
N2135      H2155   1.045       .  S
N2135      H2156   1.045       .  S
C2137      C2140   1.399       .  A
C2137      C2144   1.411       .  A
N2138      H2153   1.046       .  S
N2138      H2154   1.046       .  S
C2140      C2141   1.402       .  A
C2140      H2145   1.084       .  S
C2141      C2142   1.412       .  A
C2141      N2146   1.431       .  S
C2142      C2143   1.404       .  A
C2143      C2144   1.412       .  A
C2143      H2147   1.084       .  S
C2144      N2148   1.431       .  S
N2146      H2149   1.045       .  S
N2146      H2150   1.046       .  S
N2148      H2151   1.043       .  S
N2148      H2152   1.045       .  S
C2157      C2158   1.412       .  A
C2157      C2162   1.403       .  A
C2158      C2159   1.413       .  A
C2158      N2163   1.429       .  S
C2159      C2160   1.406       .  A
C2159      H2164   1.083       .  S
C2160      C2161   1.411       .  A
C2160      C2165   1.491   1_565  S
C2161      C2162   1.398       .  A
C2161      N2166   1.439       .  S
C2162      H2167   1.084       .  S
N2163      H2183   1.045       .  S
N2163      H2184   1.045       .  S
C2165      C2168   1.408       .  A
C2165      C2172   1.410       .  A
N2166      H2181   1.046   1_565  S
N2166      H2182   1.046       .  S
C2168      C2169   1.412       .  A
C2168      H2173   1.083       .  S
C2169      C2170   1.418       .  A
C2169      N2174   1.436       .  S
C2170      C2171   1.401       .  A
C2171      C2172   1.395       .  A
C2171      H2175   1.082       .  S
C2172      N2176   1.439       .  S
N2174      H2177   1.045       .  S
N2174      H2178   1.044       .  S
N2176      H2179   1.045       .  S
N2176      H2180   1.046       .  S
C2185      C2186   1.412       .  A
C2185      C2190   1.406       .  A
C2186      C2187   1.398       .  A
C2186      N2191   1.439       .  S
C2187      C2188   1.403       .  A
C2187      H2192   1.084       .  S
C2188      C2189   1.421       .  A
C2188      C2193   1.492   1_554  S
C2189      C2190   1.412       .  A
C2189      N2194   1.437       .  S
C2190      H2195   1.083       .  S
N2191      H2211   1.046       .  S
N2191      H2212   1.045       .  S
C2193      C2196   1.401       .  A
C2193      C2200   1.417       .  A
N2194      H2209   1.045       .  S
N2194      H2210   1.043       .  S
C2196      C2197   1.396       .  A
C2196      H2201   1.085       .  S
C2197      C2198   1.414       .  A
C2197      N2202   1.433       .  S
C2198      C2199   1.409       .  A
C2199      C2200   1.410       .  A
C2199      H2203   1.082       .  S
C2200      N2204   1.432       .  S
N2202      H2205   1.046       .  S
N2202      H2206   1.045       .  S
N2204      H2207   1.043       .  S
N2204      H2208   1.046       .  S
C2213      C2214   1.415       .  A
C2213      C2218   1.404       .  A
C2214      C2215   1.408       .  A
C2214      N2219   1.432       .  S
C2215      C2216   1.401       .  A
C2215      H2220   1.084       .  S
C2216      C2217   1.409       .  A
C2216      C2221   1.486       .  S
C2217      C2218   1.400       .  A
C2217      N2222   1.433       .  S
C2218      H2223   1.078       .  S
N2219      H2239   1.045       .  S
N2219      H2240   1.045       .  S
C2221      C2224   1.396       .  A
C2221      C2228   1.412       .  A
N2222      H2237   1.046       .  S
N2222      H2238   1.046       .  S
C2224      C2225   1.395       .  A
C2224      H2229   1.085       .  S
C2225      C2226   1.414       .  A
C2225      N2230   1.432       .  S
C2226      C2227   1.409       .  A
C2227      C2228   1.418       .  A
C2227      H2231   1.084       .  S
C2228      N2232   1.437       .  S
N2230      H2233   1.046       .  S
N2230      H2234   1.044   1_655  S
N2232      H2235   1.046       .  S
N2232      H2236   1.046       .  S
C2241      C2242   1.408       .  A
C2241      C2246   1.403       .  A
C2242      C2243   1.405       .  A
C2242      N2247   1.432       .  S
C2243      C2244   1.405       .  A
C2243      H2248   1.084       .  S
C2244      C2245   1.416       .  A
C2244      C2249   1.485       .  S
C2245      C2246   1.404       .  A
C2245      N2250   1.438       .  S
C2246      H2251   1.084       .  S
N2247      H2267   1.045       .  S
N2247      H2268   1.045       .  S
C2249      C2252   1.401       .  A
C2249      C2256   1.407       .  A
N2250      H2265   1.046       .  S
N2250      H2266   1.043       .  S
C2252      C2253   1.409       .  A
C2252      H2257   1.084       .  S
C2253      C2254   1.418       .  A
C2253      N2258   1.438       .  S
C2254      C2255   1.410       .  A
C2255      C2256   1.408       .  A
C2255      H2259   1.083       .  S
C2256      N2260   1.437       .  S
N2258      H2261   1.046       .  S
N2258      H2262   1.045       .  S
N2260      H2263   1.045       .  S
N2260      H2264   1.045       .  S
C2269      C2270   1.409       .  A
C2269      C2274   1.404       .  A
C2270      C2271   1.408       .  A
C2270      N2275   1.432       .  S
C2271      C2272   1.404       .  A
C2271      H2276   1.084       .  S
C2272      C2273   1.410       .  A
C2272      C2277   1.485       .  S
C2273      C2274   1.404       .  A
C2273      N2278   1.438       .  S
C2274      H2279   1.084       .  S
N2275      H2295   1.045       .  S
N2275      H2296   1.046       .  S
C2277      C2280   1.403       .  A
C2277      C2284   1.407       .  A
N2278      H2293   1.046       .  S
N2278      H2294   1.046       .  S
C2280      C2281   1.404       .  A
C2280      H2285   1.084       .  S
C2281      C2282   1.413       .  A
C2281      N2286   1.430       .  S
C2282      C2283   1.409       .  A
C2283      C2284   1.407       .  A
C2283      H2287   1.084       .  S
C2284      N2288   1.437       .  S
N2286      H2289   1.046       .  S
N2286      H2290   1.045       .  S
N2288      H2291   1.046       .  S
N2288      H2292   1.046       .  S
C2297      C2298   1.412       .  A
C2297      C2302   1.403       .  A
C2298      C2299   1.409       .  A
C2298      N2303   1.437       .  S
C2299      C2300   1.403       .  A
C2299      H2304   1.083       .  S
C2300      C2301   1.411       .  A
C2300      C2305   1.487       .  S
C2301      C2302   1.403       .  A
C2301      N2306   1.433       .  S
C2302      H2307   1.084       .  S
N2303      H2323   1.045       .  S
N2303      H2324   1.046       .  S
C2305      C2308   1.405       .  A
C2305      C2312   1.409       .  A
N2306      H2321   1.045       .  S
N2306      H2322   1.046       .  S
C2308      C2309   1.409       .  A
C2308      H2313   1.084       .  S
C2309      C2310   1.408       .  A
C2309      N2314   1.437       .  S
C2310      C2311   1.402       .  A
C2311      C2312   1.404       .  A
C2311      H2315   1.084       .  S
C2312      N2316   1.432       .  S
N2314      H2317   1.046       .  S
N2314      H2318   1.046       .  S
N2316      H2319   1.045       .  S
N2316      H2320   1.044       .  S
C2325      C2326   1.406       .  A
C2325      C2330   1.401       .  A
C2326      C2327   1.408       .  A
C2326      N2331   1.437       .  S
C2327      C2328   1.405       .  A
C2327      H2332   1.084       .  S
C2328      C2329   1.409       .  A
C2328      C2333   1.480       .  S
C2329      C2330   1.401       .  A
C2329      N2334   1.438       .  S
C2330      H2335   1.085       .  S
N2331      H2351   1.046       .  S
N2331      H2352   1.046       .  S
C2333      C2336   1.403       .  A
C2333      C2340   1.407       .  A
N2334      H2349   1.046       .  S
N2334      H2350   1.046       .  S
C2336      C2337   1.400       .  A
C2336      H2341   1.084       .  S
C2337      C2338   1.406       .  A
C2337      N2342   1.430       .  S
C2338      C2339   1.405       .  A
C2339      C2340   1.407       .  A
C2339      H2343   1.084       .  S
C2340      N2344   1.437       .  S
N2342      H2345   1.045       .  S
N2342      H2346   1.045       .  S
N2344      H2347   1.046       .  S
N2344      H2348   1.046       .  S
C2353      C2354   1.417       .  A
C2353      C2358   1.410       .  A
C2354      C2355   1.407       .  A
C2354      N2359   1.438       .  S
C2355      C2356   1.401       .  A
C2355      H2360   1.084       .  S
C2356      C2357   1.408       .  A
C2356      C2361   1.484       .  S
C2357      C2358   1.409       .  A
C2357      N2362   1.438       .  S
C2358      H2363   1.083       .  S
N2359      H2379   1.045       .  S
N2359      H2380   1.046       .  S
C2361      C2364   1.403       .  A
C2361      C2368   1.408       .  A
N2362      H2377   1.046       .  S
N2362      H2378   1.046       .  S
C2364      C2365   1.412       .  A
C2364      H2369   1.083       .  S
C2365      C2366   1.413       .  A
C2365      N2370   1.437       .  S
C2366      C2367   1.402       .  A
C2367      C2368   1.403       .  A
C2367      H2371   1.079       .  S
C2368      N2372   1.437       .  S
N2370      H2373   1.046       .  S
N2370      H2374   1.046       .  S
N2372      H2375   1.046       .  S
N2372      H2376   1.044       .  S
C2381      C2382   1.404       .  A
C2381      C2386   1.402       .  A
C2382      C2383   1.404       .  A
C2382      N2387   1.431       .  S
C2383      C2384   1.404       .  A
C2383      H2388   1.084       .  S
C2384      C2385   1.405       .  A
C2384      C2389   1.477       .  S
C2385      C2386   1.400       .  A
C2385      N2390   1.432       .  S
C2386      H2391   1.084       .  S
N2387      H2407   1.046       .  S
N2387      H2408   1.045       .  S
C2389      C2392   1.400       .  A
C2389      C2396   1.409       .  A
N2390      H2405   1.045       .  S
N2390      H2406   1.046       .  S
C2392      C2393   1.400       .  A
C2392      H2397   1.084       .  S
C2393      C2394   1.410       .  A
C2393      N2398   1.434       .  S
C2394      C2395   1.400       .  A
C2395      C2396   1.405       .  A
C2395      H2399   1.083       .  S
C2396      N2400   1.431       .  S
N2398      H2401   1.046       .  S
N2398      H2402   1.045       .  S
N2400      H2403   1.045       .  S
N2400      H2404   1.045       .  S
C2409      C2410   1.410       .  A
C2409      C2414   1.405       .  A
C2410      C2411   1.410       .  A
C2410      N2415   1.432       .  S
C2411      C2412   1.407       .  A
C2411      H2416   1.084       .  S
C2412      C2413   1.409       .  A
C2412      C2417   1.498       .  S
C2413      C2414   1.408       .  A
C2413      N2418   1.431       .  S
C2414      H2419   1.084       .  S
N2415      H2435   1.045       .  S
N2415      H2436   1.045       .  S
C2417      C2420   1.403       .  A
C2417      C2424   1.414       .  A
N2418      H2433   1.046       .  S
N2418      H2434   1.046       .  S
C2420      C2421   1.410       .  A
C2420      H2425   1.084       .  S
C2421      C2422   1.417       .  A
C2421      N2426   1.438       .  S
C2422      C2423   1.408       .  A
C2423      C2424   1.415       .  A
C2423      H2427   1.083       .  S
C2424      N2428   1.438       .  S
N2426      H2429   1.046       .  S
N2426      H2430   1.045       .  S
N2428      H2431   1.046       .  S
N2428      H2432   1.046       .  S
C2437      C2438   1.409       .  A
C2437      C2442   1.400       .  A
C2438      C2439   1.416       .  A
C2438      N2443   1.431       .  S
C2439      C2440   1.410       .  A
C2439      H2444   1.083       .  S
C2440      C2441   1.414       .  A
C2440      C2445   1.496   1_545  S
C2441      C2442   1.395       .  A
C2441      N2446   1.439       .  S
C2442      H2447   1.084       .  S
N2443      H2463   1.046       .  S
N2443      H2464   1.045       .  S
C2445      C2448   1.399       .  A
C2445      C2452   1.415       .  A
N2446      H2461   1.046       .  S
N2446      H2462   1.045   1_545  S
C2448      C2449   1.392       .  A
C2448      H2453   1.085       .  S
C2449      C2450   1.411       .  A
C2449      N2454   1.430       .  S
C2450      C2451   1.409       .  A
C2451      C2452   1.420       .  A
C2451      H2455   1.083       .  S
C2452      N2456   1.436       .  S
N2454      H2457   1.043       .  S
N2454      H2458   1.046       .  S
N2456      H2459   1.046       .  S
N2456      H2460   1.046       .  S
C2465      C2466   1.417       .  A
C2465      C2470   1.406       .  A
C2466      C2467   1.408       .  A
C2466      N2471   1.437       .  S
C2467      C2468   1.405       .  A
C2467      H2472   1.084       .  S
C2468      C2469   1.411       .  A
C2468      C2473   1.491       .  S
C2469      C2470   1.403       .  A
C2469      N2474   1.432       .  S
C2470      H2475   1.084       .  S
N2471      H2491   1.043       .  S
N2471      H2492   1.045       .  S
C2473      C2476   1.405       .  A
C2473      C2480   1.408       .  A
N2474      H2489   1.045       .  S
N2474      H2490   1.046       .  S
C2476      C2477   1.414       .  A
C2476      H2481   1.084       .  S
C2477      C2478   1.415       .  A
C2477      N2482   1.437       .  S
C2478      C2479   1.409       .  A
C2479      C2480   1.408       .  A
C2479      H2483   1.084       .  S
C2480      N2484   1.438       .  S
N2482      H2485   1.046       .  S
N2482      H2486   1.046       .  S
N2484      H2487   1.046       .  S
N2484      H2488   1.046       .  S
C2493      C2494   1.414       .  A
C2493      C2498   1.406       .  A
C2494      C2495   1.413       .  A
C2494      N2499   1.437       .  S
C2495      C2496   1.409       .  A
C2495      H2500   1.083       .  S
C2496      C2497   1.412       .  A
C2496      C2501   1.502       .  S
C2497      C2498   1.403       .  A
C2497      N2502   1.431       .  S
C2498      H2503   1.084       .  S
N2499      H2519   1.046       .  S
N2499      H2520   1.046       .  S
C2501      C2504   1.410       .  A
C2501      C2508   1.416       .  A
N2502      H2517   1.046       .  S
N2502      H2518   1.046       .  S
C2504      C2505   1.407       .  A
C2504      H2509   1.083       .  S
C2505      C2506   1.405       .  A
C2505      N2510   1.432       .  S
C2506      C2507   1.402       .  A
C2507      C2508   1.409       .  A
C2507      H2511   1.084       .  S
C2508      N2512   1.437       .  S
N2510      H2513   1.045       .  S
N2510      H2514   1.046       .  S
N2512      H2515   1.046       .  S
N2512      H2516   1.045       .  S
C2521      C2522   1.415       .  A
C2521      C2526   1.409       .  A
C2522      C2523   1.417       .  A
C2522      N2527   1.432       .  S
C2523      C2524   1.408       .  A
C2523      H2528   1.083       .  S
C2524      C2525   1.410       .  A
C2524      C2529   1.504       .  S
C2525      C2526   1.407       .  A
C2525      N2530   1.433       .  S
C2526      H2531   1.082       .  S
N2527      H2547   1.044       .  S
N2527      H2548   1.045       .  S
C2529      C2532   1.405       .  A
C2529      C2536   1.414       .  A
N2530      H2545   1.045       .  S
N2530      H2546   1.046       .  S
C2532      C2533   1.413       .  A
C2532      H2537   1.083       .  S
C2533      C2534   1.413       .  A
C2533      N2538   1.432       .  S
C2534      C2535   1.403       .  A
C2535      C2536   1.408       .  A
C2535      H2539   1.078       .  S
C2536      N2540   1.433       .  S
N2538      H2541   1.045       .  S
N2538      H2542   1.046       .  S
N2540      H2543   1.046       .  S
N2540      H2544   1.046       .  S
C2549      C2550   1.405       .  A
C2549      C2554   1.405       .  A
C2550      C2551   1.396       .  A
C2550      N2555   1.429   1_545  S
C2551      C2552   1.401       .  A
C2551      H2556   1.084       .  S
C2552      C2553   1.413       .  A
C2552      C2557   1.486       .  S
C2553      C2554   1.410       .  A
C2553      N2558   1.437       .  S
C2554      H2559   1.084       .  S
N2555      H2575   1.045       .  S
N2555      H2576   1.046       .  S
C2557      C2560   1.400       .  A
C2557      C2564   1.413       .  A
N2558      H2573   1.046       .  S
N2558      H2574   1.045       .  S
C2560      C2561   1.408       .  A
C2560      H2565   1.083       .  S
C2561      C2562   1.417       .  A
C2561      N2566   1.437       .  S
C2562      C2563   1.401       .  A
C2563      C2564   1.404       .  A
C2563      H2567   1.077       .  S
C2564      N2568   1.439       .  S
N2566      H2569   1.046       .  S
N2566      H2570   1.045       .  S
N2568      H2571   1.046       .  S
N2568      H2572   1.045       .  S
C2577      C2578   1.408       .  A
C2577      C2582   1.407       .  A
C2578      C2579   1.401       .  A
C2578      N2583   1.433       .  S
C2579      C2580   1.407       .  A
C2579      H2584   1.084       .  S
C2580      C2581   1.415       .  A
C2580      C2585   1.505   1_655  S
C2581      C2582   1.417       .  A
C2581      N2586   1.430       .  S
C2582      H2587   1.083       .  S
N2583      H2603   1.044       .  S
N2583      H2604   1.046       .  S
C2585      C2588   1.403       .  A
C2585      C2592   1.416       .  A
N2586      H2601   1.045       .  S
N2586      H2602   1.044       .  S
C2588      C2589   1.399       .  A
C2588      H2593   1.084       .  S
C2589      C2590   1.411       .  A
C2589      N2594   1.430       .  S
C2590      C2591   1.406       .  A
C2591      C2592   1.417       .  A
C2591      H2595   1.083       .  S
C2592      N2596   1.429       .  S
N2594      H2597   1.045       .  S
N2594      H2598   1.045       .  S
N2596      H2599   1.044       .  S
N2596      H2600   1.045       .  S
C2605      C2606   1.420       .  A
C2605      C2610   1.403       .  A
C2606      C2607   1.403       .  A
C2606      N2611   1.439       .  S
C2607      C2608   1.400       .  A
C2607      H2612   1.084       .  S
C2608      C2609   1.412       .  A
C2608      C2613   1.485       .  S
C2609      C2610   1.407       .  A
C2609      N2614   1.438       .  S
C2610      H2615   1.084       .  S
N2611      H2631   1.041       .  S
N2611      H2632   1.046       .  S
C2613      C2616   1.399       .  A
C2613      C2620   1.412       .  A
N2614      H2629   1.046       .  S
N2614      H2630   1.046       .  S
C2616      C2617   1.402       .  A
C2616      H2621   1.084       .  S
C2617      C2618   1.411       .  A
C2617      N2622   1.436       .  S
C2618      C2619   1.401       .  A
C2619      C2620   1.412       .  A
C2619      H2623   1.084       .  S
C2620      N2624   1.437       .  S
N2622      H2625   1.046       .  S
N2622      H2626   1.046       .  S
N2624      H2627   1.045       .  S
N2624      H2628   1.046       .  S
C2633      C2634   1.420       .  A
C2633      C2638   1.402       .  A
C2634      C2635   1.395       .  A
C2634      N2639   1.439       .  S
C2635      C2636   1.395       .  A
C2635      H2640   1.084       .  S
C2636      C2637   1.407       .  A
C2636      C2641   1.468       .  S
C2637      C2638   1.401       .  A
C2637      N2642   1.432       .  S
C2638      H2643   1.084       .  S
N2639      H2659   1.042       .  S
N2639      H2660   1.045       .  S
C2641      C2644   1.401       .  A
C2641      C2648   1.407       .  A
N2642      H2657   1.046       .  S
N2642      H2658   1.045       .  S
C2644      C2645   1.400       .  A
C2644      H2649   1.084       .  S
C2645      C2646   1.408       .  A
C2645      N2650   1.438       .  S
C2646      C2647   1.402       .  A
C2647      C2648   1.403       .  A
C2647      H2651   1.084       .  S
C2648      N2652   1.438       .  S
N2650      H2653   1.046       .  S
N2650      H2654   1.045       .  S
N2652      H2655   1.046       .  S
N2652      H2656   1.045       .  S
C2661      C2662   1.417       .  A
C2661      C2666   1.405       .  A
C2662      C2663   1.397       .  A
C2662      N2667   1.436       .  S
C2663      C2664   1.400       .  A
C2663      H2668   1.084       .  S
C2664      C2665   1.404       .  A
C2664      C2669   1.469       .  S
C2665      C2666   1.401       .  A
C2665      N2670   1.437       .  S
C2666      H2671   1.084       .  S
N2667      H2687   1.039       .  S
N2667      H2688   1.046       .  S
C2669      C2672   1.398       .  A
C2669      C2676   1.404       .  A
N2670      H2685   1.046       .  S
N2670      H2686   1.046       .  S
C2672      C2673   1.406       .  A
C2672      H2677   1.084       .  S
C2673      C2674   1.417       .  A
C2673      N2678   1.437       .  S
C2674      C2675   1.407       .  A
C2675      C2676   1.399       .  A
C2675      H2679   1.084       .  S
C2676      N2680   1.438       .  S
N2678      H2681   1.046       .  S
N2678      H2682   1.045       .  S
N2680      H2683   1.044       .  S
N2680      H2684   1.045       .  S
C2689      C2690   1.409       .  A
C2689      C2694   1.404       .  A
C2690      C2691   1.400       .  A
C2690      N2695   1.432       .  S
C2691      C2692   1.403       .  A
C2691      H2696   1.084       .  S
C2692      C2693   1.407       .  A
C2692      C2697   1.477       .  S
C2693      C2694   1.404       .  A
C2693      N2698   1.437       .  S
C2694      H2699   1.084       .  S
N2695      H2715   1.045       .  S
N2695      H2716   1.045       .  S
C2697      C2700   1.403       .  A
C2697      C2704   1.406       .  A
N2698      H2713   1.046       .  S
N2698      H2714   1.046       .  S
C2700      C2701   1.409       .  A
C2700      H2705   1.084       .  S
C2701      C2702   1.413       .  A
C2701      N2706   1.437       .  S
C2702      C2703   1.407       .  A
C2703      C2704   1.400       .  A
C2703      H2707   1.084       .  S
C2704      N2708   1.439       .  S
N2706      H2709   1.046       .  S
N2706      H2710   1.046       .  S
N2708      H2711   1.046       .  S
N2708      H2712   1.046       .  S
C2717      C2718   1.413       .  A
C2717      C2722   1.404       .  A
C2718      C2719   1.416       .  A
C2718      N2723   1.431       .  S
C2719      C2720   1.407       .  A
C2719      H2724   1.083       .  S
C2720      C2721   1.412       .  A
C2720      C2725   1.496   1_565  S
C2721      C2722   1.405       .  A
C2721      N2726   1.438       .  S
C2722      H2727   1.084       .  S
N2723      H2743   1.046       .  S
N2723      H2744   1.045       .  S
C2725      C2728   1.399       .  A
C2725      C2732   1.413       .  A
N2726      H2741   1.046       .  S
N2726      H2742   1.046       .  S
C2728      C2729   1.399       .  A
C2728      H2733   1.084       .  S
C2729      C2730   1.412       .  A
C2729      N2734   1.430       .  S
C2730      C2731   1.412       .  A
C2731      C2732   1.421       .  A
C2731      H2735   1.082       .  S
C2732      N2736   1.436       .  S
N2734      H2737   1.045       .  S
N2734      H2738   1.045       .  S
N2736      H2739   1.046       .  S
N2736      H2740   1.046       .  S
C2745      C2746   1.418       .  A
C2745      C2750   1.411       .  A
C2746      C2747   1.388       .  A
C2746      N2751   1.431       .  S
C2747      C2748   1.399       .  A
C2747      H2752   1.085       .  S
C2748      C2749   1.411       .  A
C2748      C2753   1.494   1_655  S
C2749      C2750   1.416       .  A
C2749      N2754   1.431       .  S
C2750      H2755   1.083       .  S
N2751      H2771   1.039       .  S
N2751      H2772   1.040       .  S
C2753      C2756   1.408       .  A
C2753      C2760   1.412       .  A
N2754      H2769   1.045       .  S
N2754      H2770   1.045       .  S
C2756      C2757   1.414       .  A
C2756      H2761   1.083       .  S
C2757      C2758   1.420       .  A
C2757      N2762   1.435       .  S
C2758      C2759   1.400       .  A
C2759      C2760   1.394       .  A
C2759      H2763   1.081       .  S
C2760      N2764   1.440       .  S
N2762      H2765   1.045       .  S
N2762      H2766   1.043       .  S
N2764      H2767   1.046       .  S
N2764      H2768   1.046   1_455  S
