geometry optimzed in LAMMPS
_audit_creation_date              2020-12-01 
_audit_creation_method            'lammps2cif' 
_symmetry_space_group_name_H-M    'P1' 
_symmetry_Int_Tables_number       1 
_symmetry_cell_setting            triclinic 
loop_ 
_symmetry_equiv_pos_as_xyz 
  x,y,z 
_cell_length_a                    31.04397572 
_cell_length_b                    31.317193342209958 
_cell_length_c                    31.48055774052841 
_cell_angle_alpha                 90.60354592621182 
_cell_angle_beta                  89.24077914621012 
_cell_angle_gamma                 88.67735095309611 
loop_ 
_atom_site_label 
_atom_site_type_symbol 
_atom_site_fract_x 
_atom_site_fract_y 
_atom_site_fract_z 
_atom_site_charge 
N1          N  0.80491988  0.29698044  0.50215900    -0.02700
C2          C  0.78151108  0.28098524  0.46980263    -0.00100
C3          C  0.74501475  0.26111638  0.48430129    -0.23000
C4          C  0.74605509  0.26348246  0.52748358    -0.23200
C5          C  0.78293920  0.28494500  0.53761041    -0.00200
H6          H  0.72137645  0.24494303  0.46539087     0.13500
H7          H  0.72307660  0.24994093  0.54940592     0.13600
N8          N  0.49371627  0.81143791  0.29092063    -0.02700
C9          C  0.45986101  0.78964768  0.27464846    -0.00100
C10         C  0.47095450  0.77216158  0.23539951    -0.23000
C11         C  0.51254528  0.78244569  0.22718611    -0.23200
C12         C  0.52580370  0.80752228  0.26074164    -0.00200
H13         H  0.45087054  0.75336082  0.21491574     0.13500
H14         H  0.53140061  0.77190735  0.19975887     0.13600
N15         N  0.32586484  0.51202856  0.80171621    -0.02700
C16         C  0.32047650  0.54356484  0.77261124    -0.00100
C17         C  0.33444010  0.53044269  0.73281884    -0.23000
C18         C  0.34745358  0.48885627  0.73650085    -0.23200
C19         C  0.33915278  0.47711893  0.77811115    -0.00200
H20         H  0.33334109  0.54871453  0.70384096     0.13500
H21         H  0.35459044  0.46743371  0.70997178     0.13600
N22         N  0.19977717  0.31746801  0.00523553    -0.02700
C23         C  0.22638418  0.29941302  0.97438040    -0.00100
C24         C  0.25118437  0.26656183  0.99099182    -0.23000
C25         C  0.24188624  0.26508747  0.03315427    -0.23200
C26         C  0.21030672  0.29589920  0.04144917    -0.00200
H27         H  0.27373982  0.24552821  0.97403967     0.13500
H28         H  0.25583781  0.24286372  0.05553785     0.13600
N29         N  0.33116605  0.99402785  0.20830507    -0.02700
C30         C  0.31617317  0.95718496  0.22551050    -0.00100
C31         C  0.29713771  0.96503196  0.26486547    -0.23000
C32         C  0.29744310  0.00742190  0.27151485    -0.23200
C33         C  0.31893976  0.02495808  0.23745818    -0.00200
H34         H  0.27869056  0.94310925  0.28375806     0.13500
H35         H  0.28020443  0.02403261  0.29702028     0.13600
N36         N  0.79454188  0.68871795  0.49480793    -0.02700
C37         C  0.78492570  0.71224828  0.45932163    -0.00100
C38         C  0.77468599  0.75398634  0.47017484    -0.23000
C39         C  0.77864626  0.75770212  0.51288848    -0.23200
C40         C  0.78941433  0.71765916  0.52779521    -0.00200
H41         H  0.76233033  0.77847805  0.44936547     0.13500
H42         H  0.76968015  0.78568175  0.53176131     0.13600
N43         N  0.20310070  0.67489157  0.00225552    -0.02700
C44         C  0.23394071  0.68215903  0.97181960    -0.00100
C45         C  0.27233701  0.69165190  0.99096942    -0.23000
C46         C  0.26614742  0.68797339  0.03353145    -0.23200
C47         C  0.22328957  0.67866165  0.04053770    -0.00200
H48         H  0.30130267  0.70312704  0.97608800     0.13500
H49         H  0.28903186  0.69793175  0.05690941     0.13600
O50         O  0.04489242  0.45708972  0.95785138    -0.73700
O51         O  0.95903452  0.54952900  0.95746272    -0.73700
O52         O  0.04744946  0.54433045  0.95770704    -0.73800
O53         O  0.95651386  0.46186558  0.95845007    -0.73800
O54         O  0.95536178  0.46356918  0.02923200    -0.73700
O55         O  0.04676409  0.54530098  0.02847469    -0.73700
O56         O  0.95883382  0.55131226  0.02816059    -0.73700
O57         O  0.04336249  0.45777700  0.02854568    -0.73800
Ni58       Ni  0.00195353  0.50312035  0.95539520     1.25400
Ni59       Ni  0.00102832  0.50447910  0.03105495     1.25400
C60         C  0.05821245  0.44201584  0.99326314     0.88500
C61         C  0.94529366  0.56627406  0.99270012     0.88400
C62         C  0.06236188  0.55812728  0.99303547     0.88500
C63         C  0.94064862  0.44947784  0.99402275     0.88600
N64         N  0.70771315  0.01152608  0.14784297    -0.02700
C65         C  0.73612208  0.04429524  0.14531426    -0.00100
C66         C  0.77806903  0.02842941  0.14449843    -0.23000
C67         C  0.77627322  0.98520182  0.14812828    -0.23200
C68         C  0.73329206  0.97536773  0.15021556    -0.00200
H69         H  0.80699093  0.04683287  0.14755513     0.13500
H70         H  0.80341041  0.96355188  0.15297694     0.13600
O71         O  0.44164041  0.04007434  0.95584351    -0.73700
O72         O  0.53748122  0.04025435  0.03290978    -0.73700
O73         O  0.52863913  0.04544821  0.94638934    -0.73800
O74         O  0.45052874  0.03538806  0.04251451    -0.73800
O75         O  0.45515591  0.96446225  0.03743240    -0.73700
O76         O  0.53421794  0.97456643  0.94143157    -0.73700
O77         O  0.54270343  0.96932101  0.02774123    -0.73700
O78         O  0.44742711  0.96911273  0.95103190    -0.73800
Ni79       Ni  0.48930539  0.04276112  0.99467301     1.25400
Ni80       Ni  0.49501757  0.96688091  0.98933876     1.25400
C81         C  0.42937287  0.00444867  0.94008265     0.88500
C82         C  0.55619224  0.00476856  0.04262535     0.88400
C83         C  0.54442092  0.01169694  0.92794411     0.88500
C84         C  0.44002711  0.99845874  0.05603151     0.88600
N85         N  0.78887596  0.34574226  0.00485548    -0.02700
C86         C  0.76995079  0.35283952  0.04344644    -0.00100
C87         C  0.73251832  0.37676784  0.03987769    -0.23000
C88         C  0.72346524  0.37753183  0.99758814    -0.23200
C89         C  0.75594723  0.35358185  0.97729944    -0.00200
H90         H  0.71116757  0.38694007  0.06560245     0.13500
H91         H  0.69480856  0.39172755  0.98458606     0.13600
C92         C  0.72083308  0.74059362  0.26077943     0.46200
H93         H  0.69609232  0.72258168  0.27738092    -0.02800
C94         C  0.77747563  0.78288630  0.21931791     0.46300
H95         H  0.79873332  0.80066833  0.19880879    -0.02800
C96         C  0.70632206  0.78770630  0.25134258    -0.16500
C97         C  0.76452990  0.74344407  0.28466022    -0.16300
C98         C  0.73214670  0.71925097  0.21749022    -0.16600
C99         C  0.73649456  0.80950316  0.22848489    -0.16600
C100        C  0.79381697  0.77021680  0.26399064    -0.16200
C101        C  0.76344793  0.74148651  0.19619904    -0.16500
N102        N  0.67646382  0.50665148  0.19417933    -0.02700
C103        C  0.69055365  0.54395685  0.21230449    -0.00100
C104        C  0.71590612  0.53497987  0.24691169    -0.23000
C105        C  0.71912760  0.49157892  0.24990026    -0.23200
C106        C  0.69604595  0.47460531  0.21682146    -0.00200
H107        H  0.73297911  0.55778230  0.26608677     0.13500
H108        H  0.73913634  0.47405266  0.27194026     0.13600
C109        C  0.78868304  0.23032713  0.22251274     0.46200
H110        H  0.81067409  0.21222843  0.20040926    -0.02800
C111        C  0.73722385  0.27429102  0.27319378     0.46300
H112        H  0.71634625  0.29353219  0.29505629    -0.02800
C113        C  0.77280527  0.27309365  0.20403453    -0.16500
C114        C  0.74715736  0.20618439  0.23480494    -0.16300
C115        C  0.80942464  0.24223879  0.26489730    -0.16600
C116        C  0.74459731  0.29639385  0.23006124    -0.16600
C117        C  0.72033173  0.22941164  0.26252076    -0.16200
C118        C  0.78218965  0.26557767  0.29125720    -0.16500
N119        N  0.51133713  0.20767244  0.31909845    -0.02700
C120        C  0.47346875  0.22912823  0.31431277    -0.00100
C121        C  0.48110996  0.26974369  0.29923288    -0.23000
C122        C  0.52472752  0.27242189  0.29268511    -0.23200
C123        C  0.54220107  0.23343541  0.30409077    -0.00200
H124        H  0.45709459  0.29270381  0.28858148     0.13500
H125        H  0.54141422  0.29850094  0.27796752     0.13600
N126        N  0.00324099  0.18922628  0.72294090    -0.02700
C127        C  0.96871232  0.19330990  0.74977436    -0.00100
C128        C  0.98199434  0.20659886  0.78939799    -0.23000
C129        C  0.02555785  0.21243543  0.78647026    -0.23200
C130        C  0.03778106  0.20303513  0.74496207    -0.00200
H131        H  0.96143942  0.21615920  0.81603586     0.13500
H132        H  0.04558483  0.22535513  0.81112186     0.13600
O133        O  0.96928088  0.07330147  0.47114981    -0.73700
O134        O  0.95288365  0.98474411  0.55445562    -0.73700
O135        O  0.96207077  0.07122230  0.55751250    -0.73800
O136        O  0.95885947  0.98717420  0.46823589    -0.73800
O137        O  0.03003372  0.97681532  0.47251490    -0.73700
O138        O  0.03323496  0.06172718  0.56159482    -0.73700
O139        O  0.02413861  0.97586354  0.55877892    -0.73700
O140        O  0.04044559  0.06316848  0.47495836    -0.73800
Ni141      Ni  0.95828031  0.02954189  0.51263131     1.25400
Ni142      Ni  0.03450122  0.01916589  0.51698694     1.25400
C143        C  0.00766029  0.08296040  0.45960210     0.88500
C144        C  0.98600286  0.96578195  0.57039202     0.88400
C145        C  0.99800912  0.08011495  0.57457629     0.88500
C146        C  0.99361684  0.96749760  0.45645137     0.88600
N147        N  0.17679043  0.30358934  0.49866901    -0.02700
C148        C  0.17745348  0.27290364  0.52929271    -0.00100
C149        C  0.18000748  0.23265896  0.51075193    -0.23000
C150        C  0.18337879  0.23825331  0.46789452    -0.23200
C151        C  0.18234279  0.28170625  0.46108316    -0.00200
H152        H  0.18505104  0.20269778  0.52700437     0.13500
H153        H  0.19113765  0.21348632  0.44464675     0.13600
N154        N  0.31731286  0.00885316  0.79567034    -0.02700
C155        C  0.30825222  0.97945295  0.76493775    -0.00100
C156        C  0.30909930  0.99879357  0.72553934    -0.23000
C157        C  0.31174959  0.04178933  0.73289072    -0.23200
C158        C  0.31611029  0.04715237  0.77609465    -0.00200
H159        H  0.30313097  0.98409792  0.69508003     0.13500
H160        H  0.30679941  0.06666447  0.70976865     0.13600
C161        C  0.28252147  0.28119677  0.72388143     0.46200
H162        H  0.30141272  0.29903811  0.70060211    -0.02800
C163        C  0.23315310  0.24142805  0.77635884     0.46300
H164        H  0.21142680  0.22524556  0.79888591    -0.02800
C165        C  0.24065936  0.26575952  0.70295540    -0.16500
C166        C  0.30542734  0.24046628  0.74199235    -0.16300
C167        C  0.26813106  0.30839309  0.76380728    -0.16600
C168        C  0.21444091  0.24518804  0.73114507    -0.16600
C169        C  0.27839891  0.21937857  0.77054373    -0.16200
C170        C  0.24170555  0.28703086  0.79172045    -0.16500
N171        N  0.51023230  0.17363730  0.68089083    -0.02700
C172        C  0.54390591  0.18823609  0.70389469    -0.00100
C173        C  0.53173901  0.19323904  0.74587559    -0.23000
C174        C  0.48947390  0.18260826  0.74881975    -0.23200
C175        C  0.47574534  0.17262848  0.70824065    -0.00200
H176        H  0.55020517  0.20727024  0.77098755     0.13500
H177        H  0.46954662  0.18914452  0.77644664     0.13600
C178        C  0.72457141  0.29242536  0.73335691     0.46200
H179        H  0.70637772  0.31384039  0.71191142    -0.02800
C180        C  0.76649310  0.24201032  0.78423452     0.46300
H181        H  0.78418946  0.22079619  0.80620791    -0.02800
C182        C  0.77074906  0.28214424  0.71728762    -0.16500
C183        C  0.72897219  0.31045750  0.77928961    -0.16300
C184        C  0.70417158  0.24803211  0.73776433    -0.16600
C185        C  0.79375760  0.25656158  0.74502081    -0.16600
C186        C  0.75095154  0.28354016  0.80576246    -0.16200
C187        C  0.72486261  0.22186105  0.76687000    -0.16500
N188        N  0.68860735  0.51405664  0.84560606    -0.02700
C189        C  0.71023381  0.55130959  0.85008153    -0.00100
C190        C  0.75152975  0.54319405  0.86442323    -0.23000
C191        C  0.75718751  0.49988149  0.86511370    -0.23200
C192        C  0.71997201  0.48307956  0.84885506    -0.00200
H193        H  0.77699256  0.56594047  0.86722376     0.13500
H194        H  0.78728376  0.48310721  0.87089090     0.13600
C195        C  0.74383435  0.78959132  0.77151877     0.46200
H196        H  0.76025516  0.81418623  0.79031809    -0.02800
C197        C  0.70590923  0.73244401  0.72646140     0.46300
H198        H  0.68868704  0.70778266  0.70825198    -0.02800
C199        C  0.69805588  0.80433622  0.75869063    -0.16500
C200        C  0.76801822  0.77949447  0.72910681    -0.16300
C201        C  0.73933991  0.74607275  0.79448849    -0.16600
C202        C  0.67744079  0.77350232  0.73502936    -0.16600
C203        C  0.74893228  0.74758192  0.70509845    -0.16200
C204        C  0.71925326  0.71573251  0.77035524    -0.16500
N205        N  0.47682743  0.80458521  0.64985802    -0.02700
C206        C  0.51077251  0.77625867  0.65267402    -0.00100
C207        C  0.49518300  0.73590515  0.66023635    -0.23000
C208        C  0.45124820  0.73990848  0.66461883    -0.23200
C209        C  0.44074055  0.78250211  0.65910362    -0.00200
H210        H  0.51419342  0.70792945  0.66870061     0.13500
H211        H  0.43001206  0.71548859  0.67602637     0.13600
C212        C  0.21244334  0.78255047  0.78037041     0.46200
H213        H  0.19663975  0.80029274  0.80641870    -0.02800
C214        C  0.25661754  0.74028648  0.72280796     0.46300
H215        H  0.27593618  0.72158223  0.69913764    -0.02800
C216        C  0.18645770  0.77624715  0.73826422    -0.16500
C217        C  0.25336869  0.80545922  0.76549221    -0.16300
C218        C  0.22821216  0.73739957  0.79536006    -0.16600
C219        C  0.20976776  0.74981874  0.70919491    -0.16600
C220        C  0.27582640  0.78405173  0.73393190    -0.16200
C221        C  0.25248718  0.71608499  0.76450616    -0.16500
N222        N  0.98324546  0.81481000  0.35490830    -0.02700
C223        C  0.94713620  0.79099491  0.35352333    -0.00100
C224        C  0.95852722  0.74833518  0.34910778    -0.23000
C225        C  0.00247062  0.74602097  0.34599015    -0.23200
C226        C  0.01758458  0.78725916  0.34911489    -0.00200
H227        H  0.93721918  0.72237180  0.34240962     0.13500
H228        H  0.02074321  0.71797898  0.33579631     0.13600
C229        C  0.25594963  0.72927409  0.28335152     0.46200
H230        H  0.27442139  0.70577948  0.30202860    -0.02800
C231        C  0.21045160  0.77967299  0.23649850     0.46300
H232        H  0.18995716  0.80099379  0.21792795    -0.02800
C233        C  0.21212486  0.74034943  0.30400252    -0.16500
C234        C  0.27845721  0.77183392  0.27538050    -0.16300
C235        C  0.24682872  0.71140790  0.23864968    -0.16600
C236        C  0.18726873  0.76628946  0.27839390    -0.16600
C237        C  0.25420204  0.79893438  0.24988501    -0.16200
C238        C  0.22309270  0.73784931  0.21258012    -0.16500
N239        N  0.28221165  0.50383979  0.19329415    -0.02700
C240        C  0.25130404  0.53524558  0.19507135    -0.00100
C241        C  0.21046864  0.51883033  0.19353848    -0.23000
C242        C  0.21562956  0.47566124  0.19478389    -0.23200
C243        C  0.25942792  0.46754920  0.19605525    -0.00200
H244        H  0.18009310  0.53633075  0.19611601     0.13500
H245        H  0.19024186  0.45281137  0.19844155     0.13600
N246        N  0.14012674  0.70302973  0.50717339    -0.02700
C247        C  0.14992172  0.73050189  0.53933700    -0.00100
C248        C  0.15444920  0.77104769  0.52348225    -0.23000
C249        C  0.14747235  0.76851706  0.48080244    -0.23200
C250        C  0.14079950  0.72601931  0.47052378    -0.00200
H251        H  0.16670733  0.79855328  0.54004935     0.13500
H252        H  0.15549555  0.79330825  0.45873720     0.13600
N253        N  0.97707372  0.82218695  0.68328639    -0.02700
C254        C  0.94210400  0.80075224  0.69740998    -0.00100
C255        C  0.95519695  0.76278134  0.71575947    -0.23000
C256        C  0.99920987  0.76177713  0.71502334    -0.23200
C257        C  0.01238046  0.79873995  0.69553518    -0.00200
H258        H  0.93491934  0.74039491  0.73211264     0.13500
H259        H  0.01925147  0.73872708  0.73135338     0.13600
N260        N  0.65077980  0.01773583  0.77346296    -0.02700
C261        C  0.66047880  0.98477255  0.74545017    -0.00100
C262        C  0.68823467  0.99808255  0.71385276    -0.23000
C263        C  0.69709759  0.03937938  0.72229229    -0.23200
C264        C  0.67493868  0.05088961  0.75912856    -0.00200
H265        H  0.70443242  0.97849983  0.68976197     0.13500
H266        H  0.72125950  0.05736040  0.70575857     0.13600
N267        N  0.01094588  0.22097824  0.33913258    -0.02700
C268        C  0.97549627  0.24736324  0.34491666    -0.00100
C269        C  0.98692786  0.28519372  0.36408217    -0.23000
C270        C  0.03030566  0.28748700  0.35865909    -0.23200
C271        C  0.04396533  0.24881246  0.34129561    -0.00200
H272        H  0.96598289  0.31157192  0.37370881     0.13500
H273        H  0.04836081  0.31593885  0.36323857     0.13600
C274        C  0.28776323  0.27394260  0.26870426     0.46200
H275        H  0.31210151  0.29518599  0.28250292    -0.02800
C276        C  0.23184358  0.22451682  0.23451443     0.46300
H277        H  0.20900033  0.20119386  0.22334882    -0.02800
C278        C  0.26767971  0.29190383  0.22782629    -0.16500
C279        C  0.30638199  0.23018230  0.25569418    -0.16300
C280        C  0.24913441  0.26647493  0.29867698    -0.16600
C281        C  0.23574234  0.26682045  0.20940469    -0.16600
C282        C  0.27727403  0.20395770  0.23719726    -0.16200
C283        C  0.21981124  0.23947828  0.28012304    -0.16500
N284        N  0.82519976  0.71164076  0.98868067    -0.02700
C285        C  0.81890712  0.74014012  0.02130759    -0.00100
C286        C  0.82351670  0.78143606  0.00774371    -0.23000
C287        C  0.83017050  0.77894046  0.96480167    -0.23200
C288        C  0.82906795  0.73615028  0.95331186    -0.00200
H289        H  0.81828973  0.81036804  0.02640298     0.13500
H290        H  0.82854389  0.80580587  0.94346242     0.13600
O291        O  0.52249527  0.46719614  0.05345958    -0.73700
O292        O  0.43720190  0.48227089  0.96599877    -0.73700
O293        O  0.52469758  0.47683805  0.96748917    -0.73800
O294        O  0.43402261  0.47315164  0.05195770    -0.73800
O295        O  0.43631175  0.54393875  0.05963331    -0.73700
O296        O  0.52802789  0.54737654  0.97676530    -0.73700
O297        O  0.44067384  0.55287971  0.97332482    -0.73700
O298        O  0.52433388  0.53778461  0.06213638    -0.73800
Ni299      Ni  0.47941117  0.47234890  0.00953276     1.25400
Ni300      Ni  0.48228267  0.54795685  0.01836046     1.25400
C301        C  0.53865817  0.50018225  0.07121511     0.88500
C302        C  0.42578297  0.51997701  0.95435068     0.88400
C303        C  0.54175671  0.51268968  0.95885917     0.88500
C304        C  0.41991292  0.50809299  0.06926175     0.88600
O305        O  0.54550320  0.03686842  0.43587683    -0.73700
O306        O  0.52595683  0.95461972  0.52348756    -0.73700
O307        O  0.53035618  0.95116038  0.43670691    -0.73800
O308        O  0.53930626  0.04017474  0.52205559    -0.73800
O309        O  0.46878058  0.05337848  0.51790401    -0.73700
O310        O  0.45948873  0.96349703  0.43440913    -0.73700
O311        O  0.45511212  0.96747714  0.52082618    -0.73700
O312        O  0.47464417  0.04922117  0.43179410    -0.73800
Ni313      Ni  0.53776586  0.99517055  0.47960620     1.25400
Ni314      Ni  0.46202171  0.00882489  0.47605928     1.25400
C315        C  0.51339807  0.05716391  0.42000607     0.88500
C316        C  0.48762211  0.94750269  0.53669632     0.88400
C317        C  0.49331892  0.94304936  0.42107837     0.88500
C318        C  0.50536206  0.06165141  0.53397274     0.88600
O319        O  0.02803642  0.53844219  0.46971646    -0.73700
O320        O  0.94440089  0.44879141  0.45909122    -0.73700
O321        O  0.94125403  0.53643708  0.46066602    -0.73800
O322        O  0.03246930  0.45130269  0.46656274    -0.73800
O323        O  0.02558539  0.45009175  0.53708739    -0.73700
O324        O  0.93297494  0.53522160  0.53100218    -0.73700
O325        O  0.93750675  0.44820438  0.52959261    -0.73700
O326        O  0.01967139  0.53743994  0.54016750    -0.73800
Ni327      Ni  0.98682650  0.49365558  0.46152079     1.25400
Ni328      Ni  0.97872454  0.49253652  0.53692044     1.25400
C329        C  0.03680790  0.55315143  0.50681233     0.88500
C330        C  0.92651009  0.43435107  0.49296899     0.88400
C331        C  0.92269686  0.55065768  0.49471272     0.88500
C332        C  0.04431679  0.43675027  0.50256343     0.88600
C333        C  0.11750739  0.21407000  0.34283750    -0.05000
C334        C  0.08762399  0.24123349  0.32252299     0.00900
C335        C  0.10074944  0.26353410  0.28579742    -0.07700
C336        C  0.14415254  0.26197129  0.27374198    -0.05100
C337        C  0.17430964  0.23632412  0.29465217     0.00900
C338        C  0.16081486  0.21037646  0.32847320    -0.07600
C339        C  0.19185397  0.17842064  0.34796024     0.62800
H340        H  0.10704763  0.19634465  0.37024881     0.13500
H341        H  0.15520741  0.28208729  0.24824912     0.13500
C342        C  0.06973457  0.28987687  0.25944382     0.63000
F343        F  0.17241221  0.15551191  0.37998518    -0.22100
F344        F  0.22668599  0.19908691  0.36479182    -0.19500
F345        F  0.20642892  0.14992634  0.31682860    -0.19200
F346        F  0.06099300  0.32841819  0.27980152    -0.19200
F347        F  0.03209925  0.26793693  0.25343250    -0.19500
F348        F  0.08685208  0.29836525  0.21962436    -0.22200
C349        C  0.13461966  0.62512004  0.50776433    -0.05000
C350        C  0.11452359  0.66554526  0.51243947     0.00900
C351        C  0.06891847  0.66824509  0.51908112    -0.07700
C352        C  0.04558974  0.63035355  0.51984662    -0.05100
C353        C  0.06511384  0.59050412  0.51122935     0.00900
C354        C  0.11044224  0.58740524  0.50704382    -0.07600
C355        C  0.13269135  0.54411751  0.50342936     0.62800
H356        H  0.16926954  0.62353415  0.50340938     0.13500
H357        H  0.01117128  0.63213830  0.52599154     0.13500
C358        C  0.04200070  0.70927971  0.52390057     0.63000
F359        F  0.12076021  0.51987375  0.53792487    -0.22100
F360        F  0.17708638  0.54714840  0.50313248    -0.19500
F361        F  0.12056637  0.52388783  0.46635623    -0.19200
F362        F  0.01195744  0.71094181  0.49185476    -0.19200
F363        F  0.06532072  0.74598197  0.52203995    -0.19500
F364        F  0.02029804  0.70918819  0.56254673    -0.22200
C365        C  0.26195398  0.36529641  0.25262679    -0.05000
C366        C  0.27588091  0.33744516  0.22015484     0.00900
C367        C  0.29742250  0.35381640  0.18411235    -0.07700
C368        C  0.29567656  0.39835931  0.17793567    -0.05100
C369        C  0.27681552  0.42571054  0.20887131     0.00900
C370        C  0.26461581  0.40917370  0.24877104    -0.07600
C371        C  0.25508302  0.43723610  0.28748912     0.62800
H372        H  0.24787092  0.35249654  0.28108577     0.13500
H373        H  0.30686132  0.41173728  0.14831241     0.13500
C374        C  0.32271513  0.32495904  0.15362745     0.63000
F375        F  0.24797495  0.41354610  0.32372084    -0.22100
F376        F  0.21885088  0.46253026  0.28141497    -0.19500
F377        F  0.29024469  0.46228682  0.29492412    -0.19200
F378        F  0.29692766  0.29368714  0.13712257    -0.19200
F379        F  0.35631913  0.30599066  0.17533699    -0.19500
F380        F  0.33994370  0.34755603  0.12013525    -0.22200
C381        C  0.30834686  0.50192423  0.11975450    -0.05000
C382        C  0.31760273  0.50599039  0.16316153     0.00900
C383        C  0.36065420  0.51123328  0.17571916    -0.07700
C384        C  0.39341820  0.51200657  0.14413554    -0.05100
C385        C  0.38406699  0.50719307  0.10078596     0.00900
C386        C  0.34081824  0.50227547  0.08826894    -0.07600
C387        C  0.32892837  0.49797132  0.04185061     0.62800
H388        H  0.27504293  0.49813132  0.11095458     0.13500
H389        H  0.42667365  0.51604695  0.15303880     0.13500
C390        C  0.37152833  0.51571471  0.22217741     0.63000
F391        F  0.28496312  0.49381382  0.03672186    -0.22100
F392        F  0.34935219  0.46217901  0.02427168    -0.19500
F393        F  0.34155125  0.53383429  0.02012157    -0.19200
F394        F  0.35777022  0.48028705  0.24380307    -0.19200
F395        F  0.35119133  0.55188901  0.23909257    -0.19500
F396        F  0.41544065  0.51907310  0.22808611    -0.22200
C397        C  0.20477706  0.71948610  0.42471579    -0.05000
C398        C  0.16111945  0.71044429  0.42958035     0.00900
C399        C  0.13770514  0.70011205  0.39289071    -0.07700
C400        C  0.15709542  0.70596371  0.35229185    -0.05100
C401        C  0.19827418  0.72395197  0.34750868     0.00900
C402        C  0.22334314  0.72889149  0.38503647    -0.07600
C403        C  0.26725788  0.74917658  0.38545280     0.62800
H404        H  0.22261005  0.72521651  0.45340037     0.13500
H405        H  0.13891557  0.69939426  0.32396606     0.13500
C406        C  0.09264400  0.68328184  0.39684459     0.63000
F407        F  0.28090211  0.75855430  0.42614495    -0.22100
F408        F  0.26478682  0.78710433  0.36421540    -0.19500
F409        F  0.29817275  0.72225578  0.36723347    -0.19200
F410        F  0.09273166  0.64839316  0.42327587    -0.19200
F411        F  0.07735856  0.67005240  0.35792411    -0.19500
F412        F  0.06520510  0.71467324  0.41360446    -0.22200
C413        C  0.23716518  0.63782023  0.25688111    -0.05000
C414        C  0.25717125  0.66626878  0.22980375     0.00900
C415        C  0.28341794  0.65080558  0.19574740    -0.07700
C416        C  0.28173608  0.60718211  0.18505532    -0.05100
C417        C  0.25844213  0.57904084  0.21048662     0.00900
C418        C  0.23951671  0.59411998  0.24938683    -0.07600
C419        C  0.22480863  0.56498381  0.28471230     0.62800
H420        H  0.21873926  0.65024752  0.28393014     0.13500
H421        H  0.29828936  0.59527683  0.15665730     0.13500
C422        C  0.31339977  0.67852096  0.17048718     0.63000
F423        F  0.21526576  0.58734865  0.32200498    -0.22100
F424        F  0.25792062  0.53659547  0.29335925    -0.19500
F425        F  0.18834701  0.54337965  0.27367089    -0.19200
F426        F  0.35466311  0.66098645  0.17148251    -0.19200
F427        F  0.31497706  0.71981103  0.18618458    -0.19500
F428        F  0.30010199  0.67977248  0.12897949    -0.22200
C429        C  0.06465406  0.78026002  0.28596262    -0.05000
C430        C  0.05947160  0.79725057  0.32733884     0.00900
C431        C  0.09663314  0.81175559  0.34848151    -0.07700
C432        C  0.13749372  0.80393702  0.32951126    -0.05100
C433        C  0.14269364  0.78163578  0.29081690     0.00900
C434        C  0.10546846  0.77033716  0.26801634    -0.07600
C435        C  0.10814841  0.74399667  0.22726431     0.62800
H436        H  0.03599295  0.77053197  0.26952658     0.13500
H437        H  0.16632663  0.81292967  0.34605760     0.13500
C438        C  0.09409159  0.83474021  0.39085905     0.63000
F439        F  0.06795295  0.73170482  0.21380683    -0.22100
F440        F  0.13257439  0.70727569  0.23385175    -0.19500
F441        F  0.12630711  0.76746536  0.19511092    -0.19200
F442        F  0.07437703  0.80933115  0.42041684    -0.19200
F443        F  0.07140494  0.87271303  0.38664995    -0.19500
F444        F  0.13437515  0.84482144  0.40574183    -0.22200
C445        C  0.13326577  0.80594338  0.68452621    -0.05000
C446        C  0.14406895  0.80048230  0.72761993     0.00900
C447        C  0.11263580  0.81739727  0.75751257    -0.07700
C448        C  0.06919984  0.82036404  0.74480030    -0.05100
C449        C  0.05707151  0.81386144  0.70254092     0.00900
C450        C  0.09002845  0.81082365  0.67135479    -0.07600
C451        C  0.07961834  0.81071389  0.62471308     0.62800
H452        H  0.15860711  0.80398820  0.66078635     0.13500
H453        H  0.04404992  0.82665584  0.76842095     0.13500
C454        C  0.12353544  0.84092104  0.79832829     0.63000
F455        F  0.11632838  0.80621000  0.59992104    -0.22100
F456        F  0.05987414  0.84901197  0.61435141    -0.19500
F457        F  0.05287126  0.77735482  0.61536618    -0.19200
F458        F  0.16000300  0.86471010  0.79246231    -0.19200
F459        F  0.12905206  0.81299906  0.83127275    -0.19500
F460        F  0.09073617  0.86945636  0.81044600    -0.22200
C461        C  0.22411645  0.73344436  0.63196136    -0.05000
C462        C  0.19516743  0.73212007  0.66660409     0.00900
C463        C  0.15425800  0.71408420  0.65887921    -0.07700
C464        C  0.13952541  0.71133055  0.61644396    -0.05100
C465        C  0.16728908  0.71914994  0.58186919     0.00900
C466        C  0.21143635  0.72514821  0.59011832    -0.07600
C467        C  0.24517182  0.72435138  0.55475630     0.62800
H468        H  0.25686003  0.74247168  0.63710376     0.13500
H469        H  0.10636168  0.70336826  0.61043049     0.13500
C470        C  0.12684884  0.69536306  0.69374635     0.63000
F471        F  0.28588160  0.71576916  0.57049402    -0.22100
F472        F  0.24569948  0.76330490  0.53457486    -0.19500
F473        F  0.23633421  0.69254735  0.52556749    -0.19200
F474        F  0.11216562  0.65604253  0.68064183    -0.19200
F475        F  0.09179586  0.72180112  0.70250737    -0.19500
F476        F  0.14991675  0.68909096  0.73046878    -0.22200
C477        C  0.36353659  0.80661475  0.65191468    -0.05000
C478        C  0.39990078  0.80115344  0.67748294     0.00900
C479        C  0.39436521  0.80529614  0.72207562    -0.07700
C480        C  0.35252145  0.80448727  0.73947316    -0.05100
C481        C  0.31637357  0.80037931  0.71377593     0.00900
C482        C  0.32160357  0.80855075  0.66982071    -0.07600
C483        C  0.28577635  0.82635210  0.64263317     0.62800
H484        H  0.36751324  0.80916563  0.61793274     0.13500
H485        H  0.34828731  0.80336090  0.77339508     0.13500
C486        C  0.43242977  0.80770278  0.75143258     0.63000
F487        F  0.29372640  0.86885829  0.63486065    -0.22100
F488        F  0.24579552  0.82411169  0.66201139    -0.19500
F489        F  0.28504370  0.80493750  0.60409677    -0.19200
F490        F  0.46110818  0.83721439  0.73624713    -0.19200
F491        F  0.45246888  0.76799991  0.75394933    -0.19500
F492        F  0.41995338  0.82054204  0.79202644    -0.22200
C493        C  0.48821652  0.88094633  0.63812441    -0.05000
C494        C  0.47671620  0.84099629  0.62193096     0.00900
C495        C  0.46723976  0.83686487  0.57783276    -0.07700
C496        C  0.46866915  0.87338541  0.55212559    -0.05100
C497        C  0.48104572  0.91302387  0.56808451     0.00900
C498        C  0.49105312  0.91710089  0.61175766    -0.07600
C499        C  0.50469549  0.95940968  0.63027778     0.62800
H500        H  0.49586617  0.88322935  0.67149819     0.13500
H501        H  0.46196566  0.87094707  0.51850977     0.13500
C502        C  0.45830664  0.79392848  0.55685080     0.63000
F503        F  0.51289874  0.95656383  0.67330172    -0.22100
F504        F  0.47233124  0.98985684  0.62472390    -0.19500
F505        F  0.54184800  0.97231910  0.61001035    -0.19200
F506        F  0.45344852  0.79747736  0.51334993    -0.19200
F507        F  0.42101485  0.77697940  0.57293362    -0.19500
F508        F  0.49213766  0.76560795  0.56357484    -0.22200
C509        C  0.63174310  0.78466410  0.67012530    -0.05000
C510        C  0.63369314  0.78016735  0.71461470     0.00900
C511        C  0.59423918  0.78251240  0.73808497    -0.07700
C512        C  0.55513411  0.78665192  0.71615544    -0.05100
C513        C  0.55321356  0.78676323  0.67171238     0.00900
C514        C  0.59222361  0.78700801  0.64822774    -0.07600
C515        C  0.59199548  0.78863336  0.60028065     0.62800
H516        H  0.66154585  0.78706983  0.65251748     0.13500
H517        H  0.52515564  0.78625724  0.73364246     0.13500
C518        C  0.59244192  0.77736677  0.78575934     0.63000
F519        F  0.63295229  0.79349361  0.58357967    -0.22100
F520        F  0.56679504  0.82287573  0.58729568    -0.19500
F521        F  0.57562713  0.75116902  0.58428552    -0.19200
F522        F  0.61405949  0.80990514  0.80538603    -0.19200
F523        F  0.61085778  0.73845323  0.79571153    -0.19500
F524        F  0.55062474  0.77819851  0.80172517    -0.22200
C525        C  0.80489936  0.72624946  0.83574173    -0.05000
C526        C  0.76042244  0.73686534  0.83630365     0.00900
C527        C  0.73861704  0.73976788  0.87643264    -0.07700
C528        C  0.76207251  0.73300855  0.91356788    -0.05100
C529        C  0.80671551  0.72639133  0.91304539     0.00900
C530        C  0.82856653  0.72174913  0.87368709    -0.07600
C531        C  0.87671466  0.71291534  0.87249837     0.62800
H532        H  0.82141492  0.72329185  0.80532972     0.13500
H533        H  0.74578017  0.73726208  0.94396354     0.13500
C534        C  0.69163670  0.75211657  0.88363672     0.63000
F535        F  0.89210813  0.70662943  0.83141869    -0.22100
F536        F  0.88608677  0.67648416  0.89538117    -0.19500
F537        F  0.89780980  0.74696256  0.89044332    -0.19200
F538        F  0.67100665  0.71888547  0.90309083    -0.19200
F539        F  0.67076657  0.76205131  0.84671660    -0.19500
F540        F  0.68840777  0.78729776  0.91059431    -0.22200
C541        C  0.67135528  0.86828762  0.72069163    -0.05000
C542        C  0.68349109  0.85100513  0.75981699     0.00900
C543        C  0.68122064  0.87902289  0.79625719    -0.07700
C544        C  0.66665144  0.92167880  0.79129545    -0.05100
C545        C  0.65528829  0.93815288  0.75182544     0.00900
C546        C  0.65447952  0.90971933  0.71644313    -0.07600
C547        C  0.63733381  0.92115571  0.67288373     0.62800
H548        H  0.67590043  0.84943454  0.69210424     0.13500
H549        H  0.66799764  0.94338483  0.81823900     0.13500
C550        C  0.69434957  0.86834459  0.84107785     0.63000
F551        F  0.67052071  0.91843406  0.64311061    -0.22100
F552        F  0.61866720  0.96153461  0.67157862    -0.19500
F553        F  0.60624690  0.89228193  0.66167560    -0.19200
F554        F  0.72343527  0.89795395  0.85537621    -0.19200
F555        F  0.71354024  0.82904100  0.84446249    -0.19500
F556        F  0.65828249  0.87016154  0.86737816    -0.22200
C557        C  0.83844676  0.80610776  0.75383440    -0.05000
C558        C  0.80970581  0.80178310  0.71984721     0.00900
C559        C  0.82348360  0.81648583  0.67939258    -0.07700
C560        C  0.86816437  0.82179560  0.67200646    -0.05100
C561        C  0.89770914  0.81833657  0.70530963     0.00900
C562        C  0.88130617  0.81729950  0.74730336    -0.07600
C563        C  0.90909577  0.82424621  0.78592063     0.62800
H564        H  0.82869679  0.79842279  0.78586756     0.13500
H565        H  0.87986286  0.82662740  0.64001439     0.13500
C566        C  0.79283670  0.82945350  0.64458507     0.63000
F567        F  0.88851521  0.85317172  0.81329518    -0.22100
F568        F  0.94881962  0.84049339  0.77521808    -0.19500
F569        F  0.91532331  0.78610094  0.80680326    -0.19200
F570        F  0.75013319  0.82520531  0.65632135    -0.19200
F571        F  0.80134916  0.80534825  0.60835310    -0.19500
F572        F  0.79896985  0.87195760  0.63523965    -0.22200
C573        C  0.72862424  0.59460240  0.78845698    -0.05000
C574        C  0.70190359  0.59007051  0.82414497     0.00900
C575        C  0.67542275  0.62521346  0.83746790    -0.07700
C576        C  0.68026042  0.66467343  0.81706722    -0.05100
C577        C  0.71116897  0.67076166  0.78493541     0.00900
C578        C  0.73434095  0.63422430  0.76901846    -0.07600
C579        C  0.76768077  0.63705853  0.73418121     0.62800
H580        H  0.74775258  0.56712227  0.77794998     0.13500
H581        H  0.66053897  0.69136231  0.82719555     0.13500
C582        C  0.64289893  0.62171217  0.87334589     0.63000
F583        F  0.78801683  0.59817636  0.72495127    -0.22100
F584        F  0.79847258  0.66471408  0.74748593    -0.19500
F585        F  0.74856707  0.65114084  0.69752046    -0.19200
F586        F  0.66395766  0.61120558  0.91028159    -0.19200
F587        F  0.61351581  0.59109070  0.86321265    -0.19500
F588        F  0.61969232  0.65937458  0.88050409    -0.22200
C589        C  0.65561550  0.51998928  0.91639905    -0.05000
C590        C  0.65108669  0.50982818  0.87297718     0.00900
C591        C  0.60956831  0.50036490  0.85771423    -0.07700
C592        C  0.57467163  0.49984595  0.88699193    -0.05100
C593        C  0.57919846  0.51361675  0.92937199     0.00900
C594        C  0.61994233  0.52669198  0.94342901    -0.07600
C595        C  0.62552209  0.55264401  0.98403379     0.62800
H596        H  0.68733277  0.52759706  0.92765117     0.13500
H597        H  0.54310127  0.49094081  0.87609485     0.13500
C598        C  0.60005813  0.49265187  0.81125177     0.63000
F599        F  0.60708097  0.59281605  0.97883273    -0.22100
F600        F  0.66851915  0.55741622  0.99385003    -0.19500
F601        F  0.60592197  0.53380417  0.01809031    -0.19200
F602        F  0.58023271  0.45384002  0.80655077    -0.19200
F603        F  0.63665489  0.49229789  0.78574301    -0.19500
F604        F  0.57237655  0.52462681  0.79735169    -0.22200
C605        C  0.74119198  0.14464821  0.78428921    -0.05000
C606        C  0.71035641  0.17781963  0.78014566     0.00900
C607        C  0.66690318  0.16737840  0.78988445    -0.07700
C608        C  0.65436299  0.12438925  0.78542718    -0.05100
C609        C  0.68547627  0.09151410  0.78116392     0.00900
C610        C  0.72924550  0.10176238  0.78699355    -0.07600
C611        C  0.76425920  0.06827499  0.79481913     0.62800
H612        H  0.77483247  0.15160517  0.78562495     0.13500
H613        H  0.62057120  0.11649273  0.78527565     0.13500
C614        C  0.63736998  0.19842945  0.81396186     0.63000
F615        F  0.78669345  0.07951720  0.83077538    -0.22100
F616        F  0.79253401  0.06623617  0.76051772    -0.19500
F617        F  0.74780601  0.02815117  0.80142947    -0.19200
F618        F  0.60138978  0.17834064  0.82986070    -0.19200
F619        F  0.62365282  0.23121484  0.78868707    -0.19500
F620        F  0.65929055  0.21509528  0.84803772    -0.22200
C621        C  0.75825631  0.38143513  0.79189680    -0.05000
C622        C  0.72165791  0.35628380  0.79204154     0.00900
C623        C  0.68252355  0.37423345  0.80876749    -0.07700
C624        C  0.68296413  0.41546683  0.82744331    -0.05100
C625        C  0.71971005  0.44095869  0.82574932     0.00900
C626        C  0.75654872  0.42465825  0.80299076    -0.07600
C627        C  0.79329335  0.45153327  0.78643417     0.62800
H628        H  0.78825222  0.36785223  0.77989979     0.13500
H629        H  0.65443940  0.42720093  0.84407076     0.13500
C630        C  0.63995847  0.35168959  0.80835598     0.63000
F631        F  0.80681088  0.43688176  0.74665645    -0.22100
F632        F  0.82792515  0.44857701  0.81346151    -0.19500
F633        F  0.78077604  0.49375519  0.78161213    -0.19200
F634        F  0.62215093  0.35156271  0.84878447    -0.19200
F635        F  0.64404322  0.31010335  0.79427779    -0.19500
F636        F  0.61197329  0.37321760  0.78186122    -0.22200
C637        C  0.48847110  0.16016405  0.60753647    -0.05000
C638        C  0.51332587  0.14791317  0.64247523     0.00900
C639        C  0.53480259  0.10712018  0.64102559    -0.07700
C640        C  0.53493202  0.08327774  0.60299888    -0.05100
C641        C  0.50837645  0.09413020  0.56902222     0.00900
C642        C  0.48371983  0.13304866  0.57168132    -0.07600
C643        C  0.45171096  0.14573117  0.53780651     0.62800
H644        H  0.47049707  0.19013875  0.61000235     0.13500
H645        H  0.55261067  0.05303199  0.60170696     0.13500
C646        C  0.55292755  0.08328449  0.67889697     0.63000
F647        F  0.43501811  0.18668229  0.54446210    -0.22100
F648        F  0.41767067  0.11804877  0.53821059    -0.19500
F649        F  0.47152009  0.14435506  0.49832977    -0.19200
F650        F  0.54904680  0.10495305  0.71701681    -0.19200
F651        F  0.59597717  0.07291267  0.67158525    -0.19500
F652        F  0.53065120  0.04584644  0.68315763    -0.22200
C653        C  0.62126402  0.18010171  0.68255141    -0.05000
C654        C  0.58472144  0.20675206  0.68804665     0.00900
C655        C  0.59110845  0.25102013  0.69430154    -0.07700
C656        C  0.63164580  0.26469865  0.70745798    -0.05100
C657        C  0.66655769  0.23571398  0.71088368     0.00900
C658        C  0.66280554  0.19529030  0.69066990    -0.07600
C659        C  0.70102600  0.16882099  0.67470062     0.62800
H660        H  0.61751904  0.14711889  0.67348918     0.13500
H661        H  0.63481072  0.29743057  0.71796112     0.13500
C662        C  0.55435479  0.28334115  0.69227762     0.63000
F663        F  0.70128238  0.12965785  0.69386595    -0.22100
F664        F  0.73971482  0.18802245  0.68220888    -0.19500
F665        F  0.69756166  0.16277505  0.63129195    -0.19200
F666        F  0.53598521  0.28935604  0.73219271    -0.19200
F667        F  0.52349102  0.26966860  0.66428213    -0.19500
F668        F  0.56919956  0.32203569  0.67792072    -0.22200
C669        C  0.42430554  0.23149070  0.70000662    -0.05000
C670        C  0.43105544  0.18738956  0.69730172     0.00900
C671        C  0.39499625  0.16117547  0.70131212    -0.07700
C672        C  0.35453485  0.17985287  0.71352059    -0.05100
C673        C  0.34950337  0.22369811  0.72503063     0.00900
C674        C  0.38654265  0.24985049  0.71848805    -0.07600
C675        C  0.39171768  0.29366816  0.73872877     0.62800
H676        H  0.45241404  0.25069357  0.69547759     0.13500
H677        H  0.32699519  0.15935833  0.71561509     0.13500
C678        C  0.39831812  0.11360851  0.69284308     0.63000
F679        F  0.43239155  0.30991789  0.73221673    -0.22100
F680        F  0.38653995  0.28942129  0.78183121    -0.19500
F681        F  0.36327716  0.32353679  0.72303575    -0.19200
F682        F  0.39310362  0.09206453  0.73045010    -0.19200
F683        F  0.43761781  0.10129456  0.67498318    -0.19500
F684        F  0.36654527  0.10197497  0.66490245    -0.22200
C685        C  0.30198734  0.90972589  0.80379660    -0.05000
C686        C  0.28676156  0.93752791  0.77219413     0.00900
C687        C  0.25218348  0.92337303  0.74632369    -0.07700
C688        C  0.24206972  0.88009136  0.74634023    -0.05100
C689        C  0.26095021  0.85135440  0.77441831     0.00900
C690        C  0.28891067  0.86693141  0.80599011    -0.07600
C691        C  0.30543728  0.84048586  0.84265396     0.62800
H692        H  0.32545389  0.92060065  0.82622960     0.13500
H693        H  0.21854552  0.86845127  0.72413679     0.13500
C694        C  0.22371064  0.95191857  0.71902396     0.63000
F695        F  0.34991659  0.84151865  0.84362955    -0.22100
F696        F  0.29340564  0.79839413  0.84029320    -0.19500
F697        F  0.28920500  0.85788401  0.88027165    -0.19200
F698        F  0.23709842  0.94863624  0.67701628    -0.19200
F699        F  0.22357901  0.99407666  0.73212585    -0.19500
F700        F  0.18138581  0.93900893  0.72162804    -0.22200
C701        C  0.25339507  0.14735778  0.79260507    -0.05000
C702        C  0.28716810  0.17650866  0.79083596     0.00900
C703        C  0.32788378  0.16181325  0.80560020    -0.07700
C704        C  0.33708001  0.11752131  0.80521540    -0.05100
C705        C  0.30462333  0.08839974  0.79706124     0.00900
C706        C  0.26138910  0.10352495  0.79731990    -0.07600
C707        C  0.22280302  0.07495649  0.80100010     0.62800
H708        H  0.22045798  0.15769420  0.78754771     0.13500
H709        H  0.36977807  0.10584095  0.80998689     0.13500
C710        C  0.36097943  0.19070866  0.82415096     0.63000
F711        F  0.19708496  0.08905680  0.83477685    -0.22100
F712        F  0.23420876  0.03288733  0.80845560    -0.19500
F713        F  0.19907556  0.07712939  0.76419450    -0.19200
F714        F  0.34683488  0.23261478  0.82577454    -0.19200
F715        F  0.39839130  0.18763970  0.80038477    -0.19500
F716        F  0.36968331  0.17809761  0.86520367    -0.22200
C717        C  0.24752425  0.29118360  0.41598658    -0.05000
C718        C  0.20295668  0.29846321  0.42167105     0.00900
C719        C  0.17933124  0.31330349  0.38644682    -0.07700
C720        C  0.19851846  0.31019313  0.34571061    -0.05100
C721        C  0.23975285  0.29193027  0.33951660     0.00900
C722        C  0.26709932  0.29309730  0.37529828    -0.07600
C723        C  0.31169683  0.31179780  0.37237457     0.62800
H724        H  0.26706626  0.28515922  0.44365812     0.13500
H725        H  0.18057169  0.31948498  0.31808113     0.13500
C726        C  0.13423021  0.33126903  0.39126269     0.63000
F727        F  0.32734104  0.32185393  0.41218342    -0.22100
F728        F  0.30980185  0.34897689  0.34913731    -0.19500
F729        F  0.34077058  0.28431231  0.35323612    -0.19200
F730        F  0.13451323  0.36741076  0.41664416    -0.19200
F731        F  0.10828070  0.30096995  0.40925216    -0.19500
F732        F  0.11750083  0.34312956  0.35250571    -0.22200
C733        C  0.23633650  0.26218069  0.58041588    -0.05000
C734        C  0.19473483  0.27904794  0.57308240     0.00900
C735        C  0.16997120  0.29434912  0.60833100    -0.07700
C736        C  0.18906816  0.29485650  0.64873372    -0.05100
C737        C  0.22859465  0.27376967  0.65704072     0.00900
C738        C  0.25277863  0.25701824  0.62167576    -0.07600
C739        C  0.29412186  0.23103250  0.62684601     0.62800
H740        H  0.25486247  0.25018496  0.55325681     0.13500
H741        H  0.17207749  0.31079239  0.67449384     0.13500
C742        C  0.12285982  0.30748837  0.60474953     0.63000
F743        F  0.30889543  0.21316463  0.58879181    -0.22100
F744        F  0.28690878  0.19797732  0.65448871    -0.19500
F745        F  0.32606937  0.25672042  0.64196709    -0.19200
F746        F  0.10143064  0.27861748  0.57959703    -0.19200
F747        F  0.11939041  0.34777948  0.58781091    -0.19500
F748        F  0.10241611  0.30855734  0.64406636    -0.22200
C749        C  0.12211832  0.41270294  0.50948610    -0.05000
C750        C  0.07859094  0.40235985  0.50357277     0.00900
C751        C  0.06841244  0.35917083  0.49597561    -0.07700
C752        C  0.10132256  0.32763238  0.49653297    -0.05100
C753        C  0.14477821  0.33786903  0.50146904     0.00900
C754        C  0.15555982  0.38096084  0.50799229    -0.07600
C755        C  0.20221510  0.39264570  0.51279538     0.62800
H756        H  0.12994288  0.44576590  0.51413932     0.13500
H757        H  0.09377583  0.29438788  0.49153189     0.13500
C758        C  0.02308101  0.34678106  0.48534593     0.63000
F759        F  0.20658831  0.43598371  0.52001051    -0.22100
F760        F  0.22494646  0.38140216  0.47612802    -0.19500
F761        F  0.21979748  0.37090347  0.54666840    -0.19200
F762        F  0.01110223  0.36692274  0.44830121    -0.19200
F763        F  0.99539518  0.35914206  0.51821995    -0.19500
F764        F  0.01974433  0.30319295  0.47899926    -0.22200
C765        C  0.98790073  0.89827248  0.67135931    -0.05000
C766        C  0.97637523  0.85836920  0.65533162     0.00900
C767        C  0.96637289  0.85423139  0.61146233    -0.07700
C768        C  0.96763545  0.89066822  0.58560488    -0.05100
C769        C  0.98048272  0.93037167  0.60126212     0.00900
C770        C  0.99052247  0.93434466  0.64496049    -0.07600
C771        C  0.00405394  0.97651514  0.66355923     0.62800
H772        H  0.99576895  0.90052504  0.70469765     0.13500
H773        H  0.96028705  0.88756014  0.55219358     0.13500
C774        C  0.95744486  0.81214289  0.58909950     0.63000
F775        F  0.00957668  0.97432529  0.70706584    -0.22100
F776        F  0.97280001  0.00751470  0.65568365    -0.19500
F777        F  0.04271108  0.98785940  0.64515932    -0.19200
F778        F  0.91780364  0.81479921  0.56964303    -0.19200
F779        F  0.95767372  0.77731672  0.61549779    -0.19500
F780        F  0.98876715  0.80463540  0.55829268    -0.22200
C781        C  0.00465203  0.10941339  0.38520012    -0.05000
C782        C  0.01395785  0.11759917  0.42819278     0.00900
C783        C  0.02781513  0.15894654  0.43976748    -0.07700
C784        C  0.02531940  0.19152426  0.40974300    -0.05100
C785        C  0.01433908  0.18419757  0.36701180     0.00900
C786        C  0.00678529  0.14155285  0.35394079    -0.07600
C787        C  0.00239109  0.12788882  0.30795901     0.62800
H788        H  0.99633098  0.07731546  0.37573771     0.13500
H789        H  0.03303205  0.22359403  0.41984651     0.13500
C790        C  0.04650264  0.17151967  0.48229444     0.63000
F791        F  0.00322057  0.16190948  0.28034074    -0.22100
F792        F  0.96414572  0.10675752  0.30291702    -0.19500
F793        F  0.03607182  0.10003855  0.29714066    -0.19200
F794        F  0.04795444  0.13871013  0.51109267    -0.19200
F795        F  0.02245211  0.20522214  0.49975681    -0.19500
F796        F  0.08814872  0.18509742  0.47576124    -0.22200
C797        C  0.98498306  0.89308196  0.36001644    -0.05000
C798        C  0.98459189  0.85327032  0.38034084     0.00900
C799        C  0.98517874  0.85212481  0.42568339    -0.07700
C800        C  0.98852031  0.89052405  0.44836039    -0.05100
C801        C  0.99066171  0.92980221  0.42824342     0.00900
C802        C  0.98790688  0.93171203  0.38350882    -0.07600
C803        C  0.98851667  0.97429715  0.36124220     0.62800
H804        H  0.98361424  0.89347625  0.32567893     0.13500
H805        H  0.98962489  0.88984858  0.48274795     0.13500
C806        C  0.98238272  0.81247736  0.45300465     0.63000
F807        F  0.98545606  0.96957626  0.31762672    -0.22100
F808        F  0.02655361  0.99455292  0.37004892    -0.19500
F809        F  0.95413620  0.99967155  0.37551215    -0.19200
F810        F  0.01634933  0.81172786  0.48091562    -0.19200
F811        F  0.98396765  0.77453328  0.43082486    -0.19500
F812        F  0.94430290  0.81440000  0.47628482    -0.22200
C813        C  0.11025375  0.18558767  0.71178320    -0.05000
C814        C  0.08002550  0.21627421  0.72717463     0.00900
C815        C  0.09350668  0.25878213  0.73330778    -0.07700
C816        C  0.13760398  0.26668506  0.73271463    -0.05100
C817        C  0.16850774  0.23494820  0.72271667     0.00900
C818        C  0.15451530  0.19488299  0.70777611    -0.07600
C819        C  0.18528900  0.16339600  0.68565249     0.62800
H820        H  0.09948146  0.15416470  0.70399018     0.13500
H821        H  0.14830807  0.29805592  0.74110575     0.13500
C822        C  0.06239632  0.29587863  0.74307537     0.63000
F823        F  0.19907394  0.18064097  0.64780149    -0.22100
F824        F  0.16575228  0.12512521  0.67663674    -0.19500
F825        F  0.22067408  0.15482845  0.71027555    -0.19200
F826        F  0.05644755  0.30044723  0.78646925    -0.19200
F827        F  0.02309602  0.28959905  0.72415428    -0.19500
F828        F  0.07841856  0.33366441  0.72760336    -0.22200
C829        C  0.91711690  0.24793451  0.72677590    -0.05000
C830        C  0.92456105  0.20483229  0.73608188     0.00900
C831        C  0.88903888  0.17807100  0.74118487    -0.07700
C832        C  0.84734694  0.19657152  0.74083457    -0.05100
C833        C  0.83971910  0.24091158  0.73807525     0.00900
C834        C  0.87572977  0.26709957  0.72856847    -0.07600
C835        C  0.87475649  0.31496653  0.72101705     0.62800
H836        H  0.94471387  0.26787455  0.72154214     0.13500
H837        H  0.82027157  0.17588964  0.74254843     0.13500
C838        C  0.89303587  0.13020032  0.74689946     0.63000
F839        F  0.88646344  0.32233711  0.67921174    -0.22100
F840        F  0.90414744  0.33440081  0.74719832    -0.19500
F841        F  0.83551536  0.33446871  0.72891817    -0.19200
F842        F  0.93527836  0.11545855  0.74748606    -0.19200
F843        F  0.87265227  0.11001178  0.71371311    -0.19500
F844        F  0.87320790  0.11918567  0.78469941    -0.22200
C845        C  0.98169727  0.17696233  0.64909762    -0.05000
C846        C  0.00396174  0.16275280  0.68510389     0.00900
C847        C  0.02139818  0.12027569  0.68503522    -0.07700
C848        C  0.02165994  0.09660234  0.64703203    -0.05100
C849        C  0.99900348  0.11020778  0.61137168     0.00900
C850        C  0.97689710  0.15037260  0.61292238    -0.07600
C851        C  0.94701601  0.16431002  0.57768744     0.62800
H852        H  0.96617156  0.20825427  0.65056757     0.13500
H853        H  0.03728969  0.06541856  0.64627200     0.13500
C854        C  0.03665000  0.09610673  0.72402763     0.63000
F855        F  0.91099354  0.13921363  0.57808860    -0.22100
F856        F  0.96725960  0.15966923  0.53867884    -0.19500
F857        F  0.93376808  0.20661285  0.58246495    -0.19200
F858        F  0.01082270  0.06121759  0.72980015    -0.19200
F859        F  0.03479039  0.11971787  0.76115257    -0.19500
F860        F  0.07860919  0.08135706  0.71762074    -0.22200
C861        C  0.42649547  0.20269332  0.25924343    -0.05000
C862        C  0.43293636  0.20867171  0.30292029     0.00900
C863        C  0.39727160  0.20919331  0.33090058    -0.07700
C864        C  0.35588835  0.21103836  0.31341912    -0.05100
C865        C  0.35000656  0.21601223  0.26959861     0.00900
C866        C  0.38550875  0.20822154  0.24160489    -0.07600
C867        C  0.38293468  0.20706783  0.19356880     0.62800
H868        H  0.45444209  0.20005587  0.23824225     0.13500
H869        H  0.32773430  0.21207654  0.33413801     0.13500
C870        C  0.40311030  0.20978886  0.37859578     0.63000
F871        F  0.41484393  0.23188000  0.17617275    -0.22100
F872        F  0.34404897  0.22217674  0.17868695    -0.19500
F873        F  0.38935101  0.16539834  0.17954752    -0.19200
F874        F  0.42337092  0.24672028  0.39081825    -0.19200
F875        F  0.42793958  0.17474962  0.39018239    -0.19500
F876        F  0.36406841  0.20813483  0.40024084    -0.22200
C877        C  0.51634581  0.12993934  0.32364685    -0.05000
C878        C  0.51784438  0.16977724  0.34387422     0.00900
C879        C  0.52471569  0.17167061  0.38842523    -0.07700
C880        C  0.52619159  0.13339324  0.41125570    -0.05100
C881        C  0.52111374  0.09366849  0.39148660     0.00900
C882        C  0.51968435  0.09168282  0.34651458    -0.07600
C883        C  0.52260498  0.05095232  0.32070313     0.62800
H884        H  0.51236677  0.12867926  0.28956937     0.13500
H885        H  0.53015037  0.13465125  0.44537667     0.13500
C886        C  0.52935383  0.21250726  0.41420521     0.63000
F887        F  0.55700235  0.05296934  0.29241757    -0.22100
F888        F  0.48514492  0.04738040  0.29790422    -0.19500
F889        F  0.52889969  0.01520843  0.34538721    -0.19200
F890        F  0.49787157  0.21455531  0.44570062    -0.19200
F891        F  0.52569033  0.24913733  0.39051195    -0.19500
F892        F  0.56929006  0.21190578  0.43322752    -0.22200
C893        C  0.61660841  0.22542022  0.32741357    -0.05000
C894        C  0.58712585  0.22062809  0.29500933     0.00900
C895        C  0.60155476  0.20966648  0.25340958    -0.07700
C896        C  0.64611522  0.20806443  0.24481253    -0.05100
C897        C  0.67597947  0.21770556  0.27640286     0.00900
C898        C  0.66097278  0.22287987  0.31924206    -0.07600
C899        C  0.69035290  0.22481501  0.35711121     0.62800
H900        H  0.60476644  0.23319299  0.35911288     0.13500
H901        H  0.65755898  0.20325695  0.21246649     0.13500
C902        C  0.56997455  0.20179805  0.21791015     0.63000
F903        F  0.70233520  0.26627565  0.36477578    -0.22100
F904        F  0.72610660  0.19900810  0.35015337    -0.19500
F905        F  0.66994813  0.21012959  0.39335883    -0.19200
F906        F  0.54651177  0.23876059  0.20969247    -0.19200
F907        F  0.54205640  0.17018629  0.22963651    -0.19500
F908        F  0.59076169  0.18875336  0.18066456    -0.22200
C909        C  0.87585774  0.27823663  0.28085161    -0.05000
C910        C  0.85642119  0.23903325  0.27460445     0.00900
C911        C  0.87900921  0.20148013  0.28723846    -0.07700
C912        C  0.91707489  0.20580456  0.31085217    -0.05100
C913        C  0.93631060  0.24551247  0.31741530     0.00900
C914        C  0.91674071  0.28215144  0.29784160    -0.07600
C915        C  0.93551608  0.32650996  0.29388550     0.62800
H916        H  0.85767954  0.30709494  0.27406052     0.13500
H917        H  0.93123401  0.17778428  0.32507635     0.13500
C918        C  0.86476388  0.15655944  0.27786897     0.63000
F919        F  0.92167676  0.34585459  0.25694590    -0.22100
F920        F  0.97964244  0.32518209  0.29111699    -0.19500
F921        F  0.92188390  0.35202105  0.32779473    -0.19200
F922        F  0.85676767  0.13563826  0.31554108    -0.19200
F923        F  0.89734370  0.13483398  0.25573816    -0.19500
F924        F  0.82855573  0.15542892  0.25330347    -0.22200
C925        C  0.64828735  0.48033815  0.12560509    -0.05000
C926        C  0.64108172  0.50170298  0.16466185     0.00900
C927        C  0.59812000  0.51551496  0.17487731    -0.07700
C928        C  0.56646765  0.51462121  0.14315491    -0.05100
C929        C  0.57415214  0.49589537  0.10301826     0.00900
C930        C  0.61551706  0.47619200  0.09485129    -0.07600
C931        C  0.62768261  0.45042166  0.05505457     0.62800
H932        H  0.68012304  0.46689589  0.11888674     0.13500
H933        H  0.53444473  0.52748959  0.15050321     0.13500
C934        C  0.58230079  0.52831274  0.21911201     0.63000
F935        F  0.63359660  0.40812519  0.06603170    -0.22100
F936        F  0.66585370  0.46516827  0.03806485    -0.19500
F937        F  0.59723241  0.45216887  0.02365274    -0.19200
F938        F  0.56599405  0.56974943  0.21860871    -0.19200
F939        F  0.61364395  0.52524452  0.24963441    -0.19500
F940        F  0.54945316  0.50161602  0.23102768    -0.22200
C941        C  0.67183795  0.39873870  0.21847445    -0.05000
C942        C  0.70238973  0.42837783  0.20530793     0.00900
C943        C  0.74421529  0.41279315  0.19391435    -0.07700
C944        C  0.75605388  0.37050143  0.20337468    -0.05100
C945        C  0.72685562  0.34081112  0.21910150     0.00900
C946        C  0.68286448  0.35471863  0.22343607    -0.07600
C947        C  0.64718494  0.32363491  0.23108793     0.62800
H948        H  0.63967162  0.41050484  0.22666686     0.13500
H949        H  0.78932710  0.36122380  0.20004176     0.13500
C950        C  0.77787592  0.44131488  0.17452795     0.63000
F951        F  0.64609346  0.31172802  0.27312744    -0.22100
F952        F  0.65373661  0.28822046  0.20512660    -0.19500
F953        F  0.60733124  0.34147900  0.22144516    -0.19200
F954        F  0.79686604  0.46534771  0.20587978    -0.19200
F955        F  0.75901466  0.46799992  0.14512290    -0.19500
F956        F  0.80988505  0.41749056  0.15353891    -0.22200
C957        C  0.74736049  0.74313018  0.11994663    -0.05000
C958        C  0.77732257  0.73281407  0.15123191     0.00900
C959        C  0.81900720  0.71695053  0.13849000    -0.07700
C960        C  0.83009558  0.71602032  0.09502929    -0.05100
C961        C  0.80145065  0.73048699  0.06418639     0.00900
C962        C  0.75857036  0.74245452  0.07652031    -0.07600
C963        C  0.72434207  0.75387935  0.04419722     0.62800
H964        H  0.71527304  0.75347244  0.13011883     0.13500
H965        H  0.86235944  0.70587396  0.08537423     0.13500
C966        C  0.85224923  0.69847604  0.16840050     0.63000
F967        F  0.68444610  0.76180172  0.06326120    -0.22100
F968        F  0.72020892  0.72020443  0.01606365    -0.19500
F969        F  0.73522257  0.78997836  0.02207296    -0.19200
F970        F  0.84219203  0.70687203  0.21034239    -0.19200
F971        F  0.89226264  0.71515686  0.15966130    -0.19500
F972        F  0.85516458  0.65469198  0.16236325    -0.22200
C973        C  0.74013800  0.64611789  0.18176517    -0.05000
C974        C  0.71344016  0.67654703  0.20318652     0.00900
C975        C  0.67104722  0.66324821  0.21425515    -0.07700
C976        C  0.66185993  0.61913962  0.21395479    -0.05100
C977        C  0.69014380  0.58850952  0.19532032     0.00900
C978        C  0.72757749  0.60358675  0.17470670    -0.07600
C979        C  0.75617318  0.57383217  0.14807760     0.62800
H980        H  0.77224305  0.65442111  0.17250597     0.13500
H981        H  0.63266308  0.60868137  0.22924091     0.13500
C982        C  0.63363321  0.69440712  0.22152529     0.63000
F983        F  0.78495619  0.59624440  0.12335794    -0.22100
F984        F  0.73104402  0.55009887  0.12107355    -0.19500
F985        F  0.77927915  0.54686104  0.17413615    -0.19200
F986        F  0.64139644  0.73228413  0.20120694    -0.19200
F987        F  0.62627328  0.70167751  0.26440381    -0.19500
F988        F  0.59646911  0.67817829  0.20439705    -0.22200
C989        C  0.82900080  0.79821840  0.33048329    -0.05000
C990        C  0.83125200  0.79268409  0.28583147     0.00900
C991        C  0.87000741  0.80747091  0.26548270    -0.07700
C992        C  0.90734263  0.81091683  0.29010234    -0.05100
C993        C  0.90641032  0.80566514  0.33393129     0.00900
C994        C  0.86628248  0.80405236  0.35490152    -0.07600
C995        C  0.86338658  0.80819411  0.40263291     0.62800
H996        H  0.79828462  0.79537346  0.34662273     0.13500
H997        H  0.93847423  0.81515686  0.27493490     0.13500
C998        C  0.87371488  0.82277668  0.21995792     0.63000
F999        F  0.82122981  0.81383101  0.41629665    -0.22100
F1000       F  0.88570367  0.84357840  0.41568176    -0.19500
F1001       F  0.88081156  0.77202342  0.42119363    -0.19200
F1002       F  0.86979698  0.78928318  0.19176567    -0.19200
F1003       F  0.91323407  0.84081004  0.21149540    -0.19500
F1004       F  0.84289850  0.85449234  0.21305961    -0.22200
C1005       C  0.71643850  0.29930112  0.87487270    -0.05000
C1006       C  0.75502503  0.29348794  0.85206523     0.00900
C1007       C  0.79414304  0.30374758  0.87171427    -0.07700
C1008       C  0.79252328  0.32315062  0.91232193    -0.05100
C1009       C  0.75338240  0.33285097  0.93401597     0.00900
C1010       C  0.71420223  0.31891274  0.91518102    -0.07600
C1011       C  0.66928560  0.32490511  0.93492851     0.62800
H1012       H  0.68717530  0.29035461  0.85928124     0.13500
H1013       H  0.82238959  0.33158381  0.92684008     0.13500
C1014       C  0.83737661  0.29513341  0.84996781     0.63000
F1015       F  0.65511667  0.36671805  0.93013941    -0.22100
F1016       F  0.66892173  0.31413491  0.97716323    -0.19500
F1017       F  0.63954741  0.29903247  0.91558494    -0.19200
F1018       F  0.83874745  0.31589968  0.81170967    -0.19200
F1019       F  0.84356667  0.25179291  0.84311941    -0.19500
F1020       F  0.87129544  0.30928419  0.87406653    -0.22200
C1021       C  0.81320562  0.32594478  0.10384340    -0.05000
C1022       C  0.77580084  0.32365281  0.07967438     0.00900
C1023       C  0.74313854  0.29509955  0.09207556    -0.07700
C1024       C  0.74435011  0.27808661  0.13272855    -0.05100
C1025       C  0.77961569  0.28383717  0.15883157     0.00900
C1026       C  0.81678047  0.30391868  0.14247370    -0.07600
C1027       C  0.85910674  0.30342224  0.16577374     0.62800
H1028       H  0.83886663  0.34615214  0.09305889     0.13500
H1029       H  0.71680248  0.26124770  0.14500354     0.13500
C1030       C  0.70741462  0.28165040  0.06290810     0.63000
F1031       F  0.89127315  0.32300138  0.14276063    -0.22100
F1032       F  0.87231836  0.26171947  0.17304412    -0.19500
F1033       F  0.85439151  0.32486861  0.20380648    -0.19200
F1034       F  0.68790233  0.24505237  0.07721509    -0.19200
F1035       F  0.72444848  0.27257053  0.02294990    -0.19500
F1036       F  0.67607737  0.31352297  0.06086827    -0.22200
C1037       C  0.63870099  0.03366118  0.85002837    -0.05000
C1038       C  0.62315666  0.01721516  0.81155312     0.00900
C1039       C  0.58056778  0.00096867  0.81183724    -0.07700
C1040       C  0.55764547  0.99804932  0.85083736    -0.05100
C1041       C  0.57289920  0.01525720  0.88907271     0.00900
C1042       C  0.61381905  0.03510825  0.88806533    -0.07600
C1043       C  0.63395095  0.05801318  0.92533321     0.62800
H1044       H  0.67093643  0.04607842  0.85047608     0.13500
H1045       H  0.52596287  0.98414033  0.85092335     0.13500
C1046       C  0.55604641  0.98883087  0.77234608     0.63000
F1047       F  0.60754328  0.06130196  0.96081126    -0.22100
F1048       F  0.64407109  0.09899186  0.91330515    -0.19500
F1049       F  0.67158619  0.03656146  0.93626572    -0.19200
F1050       F  0.54880788  0.94541231  0.77228896    -0.19200
F1051       F  0.57701441  0.99917083  0.73530335    -0.19500
F1052       F  0.51678625  0.01066202  0.77251001    -0.22200
C1053       C  0.41142091  0.98476302  0.86700899    -0.05000
C1054       C  0.39720487  0.00367818  0.90546237     0.00900
C1055       C  0.35502904  0.02231442  0.90786755    -0.07700
C1056       C  0.32865507  0.02042479  0.87175213    -0.05100
C1057       C  0.34319322  0.00226959  0.83306892     0.00900
C1058       C  0.38614727  0.98530224  0.83019045    -0.07600
C1059       C  0.40691039  0.97078819  0.78814444     0.62800
H1060       H  0.44392873  0.97144822  0.86547524     0.13500
H1061       H  0.29660263  0.03488693  0.87318054     0.13500
C1062       C  0.33574356  0.04481203  0.94679730     0.63000
F1063       F  0.44985423  0.95914963  0.79273177    -0.22100
F1064       F  0.40492769  0.00368566  0.75925814    -0.19500
F1065       F  0.38647339  0.93571185  0.77179794    -0.19200
F1066       F  0.32766460  0.08726072  0.93731873    -0.19200
F1067       F  0.36192750  0.04314997  0.98180441    -0.19500
F1068       F  0.29719226  0.02614180  0.95754371    -0.22200
C1069       C  0.72504874  0.08762063  0.21021635    -0.05000
C1070       C  0.72912833  0.08691768  0.16580451     0.00900
C1071       C  0.73750100  0.12541435  0.14448774    -0.07700
C1072       C  0.74044236  0.16344465  0.16852102    -0.05100
C1073       C  0.73722253  0.16435928  0.21319990     0.00900
C1074       C  0.72981883  0.12521311  0.23458987    -0.07600
C1075       C  0.72984952  0.12100633  0.28257369     0.62800
H1076       H  0.72051901  0.05745021  0.22599111     0.13500
H1077       H  0.74734229  0.19275339  0.15240756     0.13500
C1078       C  0.74449274  0.12612538  0.09667185     0.63000
F1079       F  0.69011243  0.13337243  0.29912699    -0.22100
F1080       F  0.76154798  0.14536654  0.30015453    -0.19500
F1081       F  0.73786436  0.07919021  0.29465934    -0.19200
F1082       F  0.70850441  0.11074162  0.07674929    -0.19200
F1083       F  0.77996760  0.10085465  0.08529103    -0.19500
F1084       F  0.75159645  0.16700326  0.08213351    -0.22200
C1085       C  0.71405404  0.93020020  0.21079302    -0.05000
C1086       C  0.72053435  0.93289411  0.16670126     0.00900
C1087       C  0.72979499  0.89470221  0.14333594    -0.07700
C1088       C  0.73382292  0.85577203  0.16510751    -0.05100
C1089       C  0.73027565  0.85329333  0.20946050     0.00900
C1090       C  0.72096862  0.89163502  0.23290200    -0.07600
C1091       C  0.72202527  0.89491274  0.28087296     0.62800
H1092       H  0.70853042  0.95961138  0.22876258     0.13500
H1093       H  0.74010163  0.82655265  0.14738832     0.13500
C1094       C  0.73364314  0.89433379  0.09526321     0.63000
F1095       F  0.74531642  0.93010460  0.29295307    -0.22100
F1096       F  0.74165817  0.85975651  0.29884859    -0.19500
F1097       F  0.68042465  0.89988289  0.29664388    -0.19200
F1098       F  0.76273031  0.92400965  0.08132273    -0.19200
F1099       F  0.69361336  0.90331140  0.07865748    -0.19500
F1100       F  0.74741449  0.85487365  0.07955639    -0.22200
C1101       C  0.59210692  0.02573265  0.11016130    -0.05000
C1102       C  0.59480234  0.00499990  0.07030640     0.00900
C1103       C  0.63496676  0.98718504  0.05643791    -0.07700
C1104       C  0.67138571  0.99315498  0.08174941    -0.05100
C1105       C  0.66868561  0.01152122  0.12266272     0.00900
C1106       C  0.62813160  0.02831303  0.13723508    -0.07600
C1107       C  0.62266322  0.05038347  0.18002506     0.62800
H1108       H  0.56132103  0.03975788  0.12008781     0.13500
H1109       H  0.70272117  0.98221478  0.07027208     0.13500
C1110       C  0.63945306  0.96074202  0.01577629     0.63000
F1111       F  0.63886202  0.09097564  0.17774633    -0.22100
F1112       F  0.64386309  0.02740392  0.21098553    -0.19500
F1113       F  0.57966469  0.05429456  0.19203595    -0.19200
F1114       F  0.68210967  0.95113421  0.00550133    -0.19200
F1115       F  0.62185986  0.98236871  0.98212292    -0.19500
F1116       F  0.61817269  0.92279831  0.02079480    -0.22200
C1117       C  0.87201629  0.59939890  0.97687001    -0.05000
C1118       C  0.91398812  0.60398045  0.99258355     0.00900
C1119       C  0.92579732  0.64512275  0.00688859    -0.07700
C1120       C  0.89510497  0.67908451  0.00693736    -0.05100
C1121       C  0.85262262  0.67379820  0.99319427     0.00900
C1122       C  0.84075231  0.63304618  0.97835330    -0.07600
C1123       C  0.79597555  0.62412492  0.96267732     0.62800
H1124       H  0.86312750  0.56937805  0.96326721     0.13500
H1125       H  0.90446132  0.71089696  0.01619780     0.13500
C1126       C  0.97193829  0.65407806  0.01775516     0.63000
F1127       F  0.78241323  0.58547380  0.97829250    -0.22100
F1128       F  0.79691050  0.62217920  0.91885484    -0.19500
F1129       F  0.76615695  0.65511589  0.97567030    -0.19200
F1130       F  0.99752593  0.64382919  0.98266636    -0.19200
F1131       F  0.98446838  0.62981223  0.05207061    -0.19500
F1132       F  0.97788988  0.69664124  0.02797661    -0.22200
C1133       C  0.90641956  0.37760557  0.00339350    -0.05000
C1134       C  0.90231317  0.42147073  0.99441972     0.00900
C1135       C  0.86085625  0.43897019  0.98701099    -0.07700
C1136       C  0.82510560  0.41266443  0.98890703    -0.05100
C1137       C  0.82857075  0.36890907  0.99851362     0.00900
C1138       C  0.87024766  0.35081240  0.00527884    -0.07600
C1139       C  0.87845676  0.30381519  0.01382239     0.62800
H1140       H  0.93793480  0.36405048  0.00940500     0.13500
H1141       H  0.79342379  0.42672497  0.98441203     0.13500
C1142       C  0.85419456  0.48604192  0.97907996     0.63000
F1143       F  0.90332271  0.28623981  0.98102892    -0.22100
F1144       F  0.84098178  0.28101789  0.01694494    -0.19500
F1145       F  0.90073980  0.29933253  0.05134546    -0.19200
F1146       F  0.87765809  0.49711923  0.94340840    -0.19200
F1147       F  0.86787842  0.50868155  0.01417696    -0.19500
F1148       F  0.81139179  0.49704097  0.97229748    -0.22200
C1149       C  0.20897500  0.73773476  0.08990422    -0.05000
C1150       C  0.20338158  0.69428095  0.08164477     0.00900
C1151       C  0.19431849  0.66752947  0.11633999    -0.07700
C1152       C  0.19526665  0.68488321  0.15817036    -0.05100
C1153       C  0.21035801  0.72639636  0.16688493     0.00900
C1154       C  0.21639306  0.75368998  0.13108631    -0.07600
C1155       C  0.23625909  0.79732953  0.13395282     0.62800
H1156       H  0.21443905  0.75779844  0.06262714     0.13500
H1157       H  0.18715919  0.66477868  0.18462365     0.13500
C1158       C  0.18435459  0.62090184  0.10933251     0.63000
F1159       F  0.24572084  0.81420394  0.09449569    -0.22100
F1160       F  0.27456709  0.79350355  0.15505852    -0.19500
F1161       F  0.20845705  0.82606143  0.15399894    -0.19200
F1162       F  0.21793975  0.60028549  0.08761872    -0.19200
F1163       F  0.14719014  0.61768784  0.08615332    -0.19500
F1164       F  0.17784073  0.60016358  0.14730889    -0.22200
C1165       C  0.26358468  0.70547155  0.85873678    -0.05000
C1166       C  0.22504767  0.72091407  0.84072065     0.00900
C1167       C  0.18625435  0.71497864  0.86489574    -0.07700
C1168       C  0.18917930  0.70154564  0.90775492    -0.05100
C1169       C  0.22820956  0.68631040  0.92465687     0.00900
C1170       C  0.26425635  0.68275236  0.89673800    -0.07600
C1171       C  0.30269473  0.65283045  0.90390427     0.62800
H1172       H  0.29350575  0.70766624  0.84134934     0.13500
H1173       H  0.16046075  0.70219935  0.92766539     0.13500
C1174       C  0.14123161  0.71793044  0.84730304     0.63000
F1175       F  0.31078161  0.62873294  0.86753756    -0.22100
F1176       F  0.29529259  0.62446051  0.93645613    -0.19500
F1177       F  0.33892967  0.67608209  0.91250617    -0.19200
F1178       F  0.12320010  0.67799311  0.84911583    -0.19200
F1179       F  0.14033496  0.73101170  0.80572752    -0.19500
F1180       F  0.11611563  0.74572766  0.87207202    -0.22200
C1181       C  0.17323319  0.60731198  0.97927059    -0.05000
C1182       C  0.16602142  0.64871402  0.99564557     0.00900
C1183       C  0.12400240  0.66106568  0.00956358    -0.07700
C1184       C  0.09151713  0.63030992  0.00975573    -0.05100
C1185       C  0.09848375  0.58893242  0.99296515     0.00900
C1186       C  0.14028201  0.57723459  0.97778136    -0.07600
C1187       C  0.15108230  0.53179116  0.96454459     0.62800
H1188       H  0.20576893  0.59816737  0.96957275     0.13500
H1189       H  0.06060257  0.63887797  0.02360340     0.13500
C1190       C  0.11182417  0.70587688  0.02445143     0.63000
F1191       F  0.19407118  0.52619002  0.95319346    -0.22100
F1192       F  0.12659762  0.52021162  0.93011296    -0.19500
F1193       F  0.14244054  0.50567772  0.99859627    -0.19200
F1194       F  0.14417202  0.73455419  0.01707928    -0.19200
F1195       F  0.10216147  0.70553868  0.06745475    -0.19500
F1196       F  0.07580351  0.72003448  0.00282874    -0.22200
C1197       C  0.81338231  0.70904874  0.60280310    -0.05000
C1198       C  0.77989705  0.70913390  0.57346451     0.00900
C1199       C  0.73704278  0.71364996  0.58908795    -0.07700
C1200       C  0.72982193  0.72420895  0.63206817    -0.05100
C1201       C  0.76323033  0.73036504  0.66119048     0.00900
C1202       C  0.80597133  0.71783967  0.64674282    -0.07600
C1203       C  0.84464143  0.70930322  0.67458884     0.62800
H1204       H  0.84602173  0.70361832  0.59095693     0.13500
H1205       H  0.69709215  0.72885644  0.64247635     0.13500
C1206       C  0.69841237  0.71112328  0.56000271     0.63000
F1207       F  0.85427774  0.66595759  0.67348138    -0.22100
F1208       F  0.83847641  0.72139347  0.71622909    -0.19500
F1209       F  0.87989369  0.73044166  0.65880848    -0.19200
F1210       F  0.69241427  0.74935046  0.53923340    -0.19200
F1211       F  0.66109469  0.70254219  0.58260024    -0.19500
F1212       F  0.70452911  0.67892885  0.53023755    -0.22200
C1213       C  0.81483993  0.69580796  0.38608458    -0.05000
C1214       C  0.77923502  0.69798063  0.41425557     0.00900
C1215       C  0.73781662  0.70215803  0.39623984    -0.07700
C1216       C  0.73429677  0.71498804  0.35379309    -0.05100
C1217       C  0.77048208  0.72064649  0.32715336     0.00900
C1218       C  0.81014592  0.70291861  0.34195538    -0.07600
C1219       C  0.84414738  0.68449113  0.31163212     0.62800
H1220       H  0.84665771  0.68957132  0.39815054     0.13500
H1221       H  0.70262901  0.72242556  0.34265414     0.13500
C1222       C  0.69705896  0.69535918  0.42222864     0.63000
F1223       F  0.82435536  0.66542790  0.27750899    -0.22100
F1224       F  0.86891807  0.65327134  0.33123615    -0.19500
F1225       F  0.87131729  0.71544898  0.29731631    -0.19200
F1226       F  0.68933722  0.72921325  0.44993628    -0.19200
F1227       F  0.70133967  0.65813120  0.44485905    -0.19500
F1228       F  0.66142039  0.69127992  0.39662539    -0.22200
C1229       C  0.86587257  0.65840822  0.47588124    -0.05000
C1230       C  0.82518467  0.65272811  0.49481449     0.00900
C1231       C  0.81616635  0.61203925  0.51213586    -0.07700
C1232       C  0.84946806  0.58042606  0.51309289    -0.05100
C1233       C  0.88923947  0.58571534  0.49233672     0.00900
C1234       C  0.89632741  0.62456990  0.47075486    -0.07600
C1235       C  0.93458795  0.63002974  0.44091738     0.62800
H1236       H  0.87298111  0.68966461  0.46373592     0.13500
H1237       H  0.84403213  0.55041402  0.52874313     0.13500
C1238       C  0.77155474  0.60054926  0.52732857     0.63000
F1239       F  0.93651213  0.67116825  0.42539446    -0.22100
F1240       F  0.93112137  0.60241848  0.40663212    -0.19500
F1241       F  0.97254325  0.62109295  0.46144452    -0.19200
F1242       F  0.76889116  0.55750600  0.53639720    -0.19200
F1243       F  0.74232357  0.60936792  0.49587349    -0.19500
F1244       F  0.76054748  0.62321096  0.56372437    -0.22200
C1245       C  0.31333086  0.84161920  0.21650685    -0.05000
C1246       C  0.27007650  0.83968005  0.23090955     0.00900
C1247       C  0.24280789  0.87625537  0.22504849    -0.07700
C1248       C  0.25981540  0.91128974  0.20356504    -0.05100
C1249       C  0.30457127  0.91723570  0.20346380     0.00900
C1250       C  0.33189438  0.88089638  0.20649831    -0.07600
C1251       C  0.38034662  0.88434722  0.20219454     0.62800
H1252       H  0.33333312  0.81293423  0.21608264     0.13500
H1253       H  0.23913557  0.93927206  0.19921524     0.13500
C1254       C  0.19920347  0.88311440  0.24717710     0.63000
F1255       F  0.40105825  0.84495868  0.20562716    -0.22100
F1256       F  0.39564436  0.91094072  0.23361606    -0.19500
F1257       F  0.39068469  0.90080219  0.16295702    -0.19200
F1258       F  0.19607894  0.85899442  0.28335938    -0.19200
F1259       F  0.16625444  0.87337352  0.21990368    -0.19500
F1260       F  0.19353975  0.92529995  0.26010397    -0.22200
C1261       C  0.34471187  0.97727067  0.13209788    -0.05000
C1262       C  0.35771920  0.99762617  0.16978822     0.00900
C1263       C  0.39918228  0.01649154  0.16988439    -0.07700
C1264       C  0.42377020  0.01726811  0.13173594    -0.05100
C1265       C  0.41123737  0.99587446  0.09467170     0.00900
C1266       C  0.37176483  0.97389197  0.09547930    -0.07600
C1267       C  0.35909177  0.94533032  0.05876595     0.62800
H1268       H  0.31377942  0.96212961  0.13222877     0.13500
H1269       H  0.45428720  0.03338908  0.13111849     0.13500
C1270       C  0.41967795  0.03314319  0.21013571     0.63000
F1271       F  0.31783808  0.93016963  0.06401996    -0.22100
F1272       F  0.38737795  0.91060369  0.05616880    -0.19500
F1273       F  0.36060184  0.96739809  0.02107214    -0.19200
F1274       F  0.46406371  0.03479959  0.20575792    -0.19200
F1275       F  0.41100102  0.00650375  0.24367786    -0.19500
F1276       F  0.40448688  0.07395362  0.21939441    -0.22200
C1277       C  0.29802867  0.13712591  0.27046271    -0.05000
C1278       C  0.28653341  0.15721830  0.23270984     0.00900
C1279       C  0.29078822  0.13382080  0.19367884    -0.07700
C1280       C  0.30442552  0.09050801  0.19508739    -0.05100
C1281       C  0.31798750  0.07189813  0.23315585     0.00900
C1282       C  0.31897530  0.09755547  0.27047286    -0.07600
C1283       C  0.34168355  0.08500871  0.31122984     0.62800
H1284       H  0.29403934  0.15425070  0.30035619     0.13500
H1285       H  0.30365052  0.07104822  0.16645594     0.13500
C1286       C  0.28172548  0.15173560  0.15008373     0.63000
F1287       F  0.36948103  0.11683147  0.32264902    -0.22100
F1288       F  0.36604617  0.04769580  0.30709166    -0.19500
F1289       F  0.31161802  0.08053637  0.34361725    -0.19200
F1290       F  0.31856076  0.14780189  0.12502584    -0.19200
F1291       F  0.26894720  0.19420039  0.15121260    -0.19500
F1292       F  0.24978684  0.12838432  0.13113619    -0.22200
C1293       C  0.19219789  0.30998698  0.90397795    -0.05000
C1294       C  0.22960172  0.30936724  0.92824609     0.00900
C1295       C  0.27014948  0.30732146  0.90667232    -0.07700
C1296       C  0.27127067  0.29898594  0.86307263    -0.05100
C1297       C  0.23461243  0.29936218  0.83801399     0.00900
C1298       C  0.19383406  0.30607199  0.85911999    -0.07600
C1299       C  0.15187544  0.30722135  0.83565708     0.62800
H1300       H  0.16144433  0.31064865  0.92062185     0.13500
H1301       H  0.30195069  0.29026703  0.84867010     0.13500
C1302       C  0.31363970  0.31244921  0.92756003     0.63000
F1303       F  0.11708353  0.31765528  0.86209539    -0.22100
F1304       F  0.14485847  0.26742343  0.81846356    -0.19500
F1305       F  0.15350325  0.33778238  0.80453834    -0.19200
F1306       F  0.33655326  0.27404274  0.92534541    -0.19200
F1307       F  0.31059392  0.32583391  0.96943657    -0.19500
F1308       F  0.33662164  0.34276393  0.90572766    -0.22200
C1309       C  0.12322916  0.33856557  0.01644461    -0.05000
C1310       C  0.16431773  0.34831897  0.00018344     0.00900
C1311       C  0.16912930  0.38827027  0.97977420    -0.07700
C1312       C  0.13238012  0.41477691  0.97348429    -0.05100
C1313       C  0.09266354  0.40726169  0.99352140     0.00900
C1314       C  0.08785210  0.36793417  0.01489519    -0.07600
C1315       C  0.04481210  0.35613991  0.03392415     0.62800
H1316       H  0.11935531  0.30791031  0.03137072     0.13500
H1317       H  0.13577975  0.44343530  0.95515601     0.13500
C1318       C  0.21212414  0.40691804  0.96766859     0.63000
F1319       F  0.04521219  0.31478238  0.04904050    -0.22100
F1320       F  0.01391445  0.35928314  0.00294249    -0.19500
F1321       F  0.03396296  0.38346133  0.06733458    -0.19200
F1322       F  0.21515166  0.41015808  0.92397782    -0.19200
F1323       F  0.24690201  0.38347811  0.98210266    -0.19500
F1324       F  0.21474260  0.44722483  0.98562549    -0.22200
C1325       C  0.17770354  0.26070291  0.10200022    -0.05000
C1326       C  0.19133983  0.29921721  0.08501599     0.00900
C1327       C  0.20114131  0.33238452  0.11357556    -0.07700
C1328       C  0.20619593  0.32230817  0.15698364    -0.05100
C1329       C  0.20686301  0.27953484  0.17137248     0.00900
C1330       C  0.18328243  0.25049205  0.14506952    -0.07600
C1331       C  0.15927772  0.21140807  0.16002883     0.62800
H1332       H  0.16647765  0.23651061  0.08013500     0.13500
H1333       H  0.21105356  0.34794703  0.17915739     0.13500
C1334       C  0.20779460  0.37740666  0.09811410     0.63000
F1335       F  0.12551872  0.20233899  0.13325115    -0.22100
F1336       F  0.14088093  0.21831820  0.19949551    -0.19500
F1337       F  0.18609943  0.17581217  0.16021017    -0.19200
F1338       F  0.17095049  0.39237909  0.07864381    -0.19200
F1339       F  0.24212219  0.37797584  0.06975532    -0.19500
F1340       F  0.21617862  0.40516658  0.13107538    -0.22200
C1341       C  0.28013953  0.42938437  0.76085071    -0.05000
C1342       C  0.31896696  0.43494736  0.78257625     0.00900
C1343       C  0.34051817  0.39900018  0.79947404    -0.07700
C1344       C  0.32047454  0.35925452  0.79649876    -0.05100
C1345       C  0.28370196  0.35283155  0.77170664     0.00900
C1346       C  0.26410767  0.38870256  0.75231403    -0.07600
C1347       C  0.22930809  0.38389927  0.71953169     0.62800
H1348       H  0.26503210  0.45712348  0.74649757     0.13500
H1349       H  0.33584349  0.33225955  0.81102090     0.13500
C1350       C  0.38576542  0.40188192  0.81704937     0.63000
F1351       F  0.21263745  0.42295611  0.70661903    -0.22100
F1352       F  0.19592007  0.36074814  0.73592162    -0.19500
F1353       F  0.24668778  0.36308070  0.68419416    -0.19200
F1354       F  0.41357980  0.41509619  0.78540538    -0.19200
F1355       F  0.40095255  0.36294267  0.83179488    -0.19500
F1356       F  0.38664021  0.43070259  0.85031981    -0.22200
C1357       C  0.33139315  0.62040735  0.76955118    -0.05000
C1358       C  0.30375849  0.58761210  0.78036573     0.00900
C1359       C  0.25957545  0.59728236  0.78833945    -0.07700
C1360       C  0.24400146  0.63919066  0.78127932    -0.05100
C1361       C  0.27167391  0.67203937  0.76945682     0.00900
C1362       C  0.31668670  0.66274889  0.76571568    -0.07600
C1363       C  0.34997814  0.69673375  0.75953347     0.62800
H1364       H  0.36494346  0.61225340  0.76298257     0.13500
H1365       H  0.21006983  0.64696392  0.78582929     0.13500
C1366       C  0.22939103  0.56415700  0.80554500     0.63000
F1367       F  0.39130711  0.68142752  0.76736376    -0.22100
F1368       F  0.34177056  0.72992874  0.78767858    -0.19500
F1369       F  0.34923046  0.71106770  0.71829350    -0.19200
F1370       F  0.24214864  0.55345297  0.84599935    -0.19200
F1371       F  0.23035551  0.52812739  0.77980366    -0.19500
F1372       F  0.18720131  0.57941736  0.80815362    -0.22200
C1373       C  0.37958799  0.54769317  0.84577498    -0.05000
C1374       C  0.34422492  0.52032075  0.84328322     0.00900
C1375       C  0.33258230  0.49738309  0.88017979    -0.07700
C1376       C  0.35940586  0.49895577  0.91606909    -0.05100
C1377       C  0.39581139  0.52482646  0.91770006     0.00900
C1378       C  0.40481325  0.55136783  0.88254499    -0.07600
C1379       C  0.44206272  0.58203049  0.88272673     0.62800
H1380       H  0.38879319  0.56478579  0.81760301     0.13500
H1381       H  0.35192907  0.47924222  0.94312433     0.13500
C1382       C  0.29308505  0.47013528  0.88343731     0.63000
F1383       F  0.44621975  0.60315521  0.84450286    -0.22100
F1384       F  0.48030738  0.55995678  0.88990369    -0.24100
F1385       F  0.43524418  0.61257696  0.91428170    -0.19200
F1386       F  0.30549756  0.42781915  0.88822586    -0.19200
F1387       F  0.26694710  0.47339330  0.84848173    -0.19500
F1388       F  0.26912038  0.48306591  0.91876847    -0.22200
C1389       C  0.35245634  0.74074487  0.28282354    -0.05000
C1390       C  0.32496524  0.77686799  0.28838451     0.00900
C1391       C  0.34374642  0.81488698  0.30467605    -0.07700
C1392       C  0.38913148  0.81777586  0.30451515    -0.05100
C1393       C  0.41613178  0.78286664  0.29343985     0.00900
C1394       C  0.39708011  0.74256609  0.28832242    -0.07600
C1395       C  0.42278045  0.70071371  0.28737307     0.62800
H1396       H  0.33959726  0.71048347  0.27285195     0.13500
H1397       H  0.40295986  0.84832620  0.31098697     0.13500
C1398       C  0.31913614  0.85326708  0.32301370     0.63000
F1399       F  0.40569995  0.67360803  0.31728864    -0.22100
F1400       F  0.46570982  0.70594366  0.29694940    -0.19500
F1401       F  0.42009062  0.68173349  0.24766448    -0.19200
F1402       F  0.27511214  0.85101354  0.31938293    -0.19200
F1403       F  0.33257259  0.88958021  0.30291163    -0.19500
F1404       F  0.32857901  0.85706170  0.36567399    -0.22200
C1405       C  0.59476340  0.81315855  0.29997347    -0.05000
C1406       C  0.57141500  0.82146363  0.26310787     0.00900
C1407       C  0.59494157  0.83022389  0.22541010    -0.07700
C1408       C  0.63874291  0.81899328  0.22310988    -0.05100
C1409       C  0.66140715  0.80489750  0.25879663     0.00900
C1410       C  0.63985188  0.80696159  0.29892465    -0.07600
C1411       C  0.66185416  0.80538533  0.34150195     0.62800
H1412       H  0.57797027  0.80950595  0.32950310     0.13500
H1413       H  0.65483826  0.81992164  0.19244201     0.13500
C1414       C  0.57537583  0.85071516  0.18659430     0.63000
F1415       F  0.65328411  0.84335890  0.36317497    -0.22100
F1416       F  0.70589099  0.80026110  0.33798569    -0.19500
F1417       F  0.64555655  0.77246710  0.36524171    -0.19200
F1418       F  0.59974990  0.88532485  0.17507968    -0.19200
F1419       F  0.53358630  0.86537627  0.19412948    -0.19500
F1420       F  0.57589424  0.82165787  0.15317901    -0.22200
C1421       C  0.47647629  0.88350295  0.31576228    -0.05000
C1422       C  0.49169279  0.84251876  0.32523553     0.00900
C1423       C  0.50358237  0.83346293  0.36763966    -0.07700
C1424       C  0.50432434  0.86741925  0.39758841    -0.05100
C1425       C  0.48975371  0.90904592  0.38773453     0.00900
C1426       C  0.47261560  0.91620752  0.34657432    -0.07600
C1427       C  0.44955890  0.95644616  0.33196338     0.62800
H1428       H  0.46579466  0.88938973  0.28363910     0.13500
H1429       H  0.51536170  0.86104050  0.42949655     0.13500
C1430       C  0.51475545  0.78898680  0.38322150     0.63000
F1431       F  0.46883989  0.96933238  0.29461564    -0.22100
F1432       F  0.44987912  0.98988744  0.36068060    -0.19500
F1433       F  0.40707090  0.94724251  0.32378518    -0.19200
F1434       F  0.55499737  0.78872228  0.40163070    -0.19200
F1435       F  0.51508014  0.75859626  0.35108344    -0.19500
F1436       F  0.48469873  0.77762325  0.41361156    -0.22200
C1437       C  0.78143751  0.32619107  0.60360155    -0.05000
C1438       C  0.79587404  0.28949159  0.58206548     0.00900
C1439       C  0.80822726  0.25308031  0.60545379    -0.07700
C1440       C  0.80182310  0.25358628  0.64948667    -0.05100
C1441       C  0.78420501  0.28924768  0.67160253     0.00900
C1442       C  0.77560192  0.32721278  0.64783410    -0.07600
C1443       C  0.75931530  0.36974184  0.66531174     0.62800
H1444       H  0.77086946  0.35353505  0.58540443     0.13500
H1445       H  0.80715731  0.22407166  0.66610350     0.13500
C1446       C  0.82183287  0.21123231  0.58412555     0.63000
F1447       F  0.78662910  0.40154930  0.65232174    -0.22100
F1448       F  0.75756119  0.37092926  0.70845538    -0.19500
F1449       F  0.71852187  0.37851684  0.64998440    -0.19200
F1450       F  0.84811985  0.21852681  0.54946857    -0.19200
F1451       F  0.78580947  0.18977017  0.57114218    -0.19500
F1452       F  0.84457844  0.18537300  0.61175317    -0.22200
C1453       C  0.80415529  0.23842622  0.36029384    -0.05000
C1454       C  0.79287908  0.27425716  0.33627717     0.00900
C1455       C  0.78763931  0.31460249  0.35664994    -0.07700
C1456       C  0.78803776  0.31630832  0.40120505    -0.05100
C1457       C  0.79417653  0.27924209  0.42507114     0.00900
C1458       C  0.80364264  0.23959701  0.40445248    -0.07600
C1459       C  0.81125351  0.19688745  0.42635115     0.62800
H1460       H  0.80902005  0.20774910  0.34450785     0.13500
H1461       H  0.78109878  0.34642025  0.41751354     0.13500
C1462       C  0.78115234  0.35623156  0.33338279     0.63000
F1463       F  0.78137412  0.16798129  0.41242471    -0.22100
F1464       F  0.80820794  0.19887491  0.47007807    -0.19500
F1465       F  0.85203367  0.18131102  0.41548020    -0.19200
F1466       F  0.73910256  0.37084483  0.33923532    -0.19200
F1467       F  0.78991517  0.35220289  0.29049483    -0.19500
F1468       F  0.80866474  0.38632397  0.34955536    -0.22200
C1469       C  0.82296637  0.37242368  0.51007594    -0.05000
C1470       C  0.83633649  0.33060233  0.49878257     0.00900
C1471       C  0.87806012  0.32441143  0.48011623    -0.07700
C1472       C  0.90498416  0.35980500  0.47539057    -0.05100
C1473       C  0.89314697  0.40063341  0.49076397     0.00900
C1474       C  0.85062692  0.40747423  0.50680084    -0.07600
C1475       C  0.83366154  0.45209806  0.51776905     0.62800
H1476       H  0.78995464  0.37752619  0.52053786     0.13500
H1477       H  0.93631847  0.35493297  0.46083377     0.13500
C1478       C  0.89643944  0.28167676  0.46505620     0.63000
F1479       F  0.79048318  0.45233338  0.52941174    -0.22100
F1480       F  0.83816248  0.47791129  0.48266878    -0.19500
F1481       F  0.85635246  0.46893539  0.55121094    -0.19200
F1482       F  0.90010196  0.28150387  0.42123687    -0.19200
F1483       F  0.87151069  0.24828516  0.47719778    -0.19500
F1484       F  0.93681366  0.27488415  0.48207759    -0.22200
loop_ 
_geom_bond_atom_site_label_1 
_geom_bond_atom_site_label_2 
_geom_bond_distance 
_geom_bond_site_symmetry_2 
_ccdc_geom_bond_type 
N1            C5   1.362       .  A
N1            C2   1.357       .  A
N1         C1470   1.455       .  S
C2            C3   1.380       .  A
C2         C1457   1.457       .  S
C3            C4   1.361       .  A
C3            H6   1.083       .  S
C4            C5   1.380       .  A
C4            H7   1.083       .  S
C5         C1438   1.467       .  S
N8           C12   1.370       .  A
N8            C9   1.368       .  A
N8         C1422   1.446       .  S
C9           C10   1.382       .  A
C9         C1393   1.494       .  S
C10          C11   1.360       .  A
C10          H13   1.082       .  S
C11          C12   1.382       .  A
C11          H14   1.081       .  S
C12        C1406   1.494       .  S
N15          C19   1.368       .  A
N15          C16   1.363       .  A
N15        C1374   1.457       .  S
C16          C17   1.376       .  A
C16        C1358   1.479       .  S
C17          C18   1.361       .  A
C17          H20   1.082       .  S
C18          C19   1.387       .  A
C18          H21   1.083       .  S
C19        C1342   1.482       .  S
N22          C26   1.371       .  A
N22          C23   1.375   1_554  A
N22        C1310   1.459       .  S
C23          C24   1.382       .  A
C23        C1294   1.491       .  S
C24          C25   1.356   1_556  A
C24          H27   1.082       .  S
C25          C26   1.380       .  A
C25          H28   1.083       .  S
C26        C1326   1.487       .  S
N29          C33   1.371   1_565  A
N29          C30   1.368       .  A
N29        C1262   1.464       .  S
C30          C31   1.383       .  A
C30        C1249   1.478       .  S
C31          C32   1.342   1_565  A
C31          H34   1.082       .  S
C32          C33   1.381       .  A
C32          H35   1.081       .  S
C33        C1281   1.477       .  S
N36          C40   1.376       .  A
N36          C37   1.377       .  A
N36        C1230   1.458       .  S
C37          C38   1.377       .  A
C37        C1214   1.497       .  S
C38          C39   1.356       .  A
C38          H41   1.081       .  S
C39          C40   1.379       .  A
C39          H42   1.082       .  S
C40        C1198   1.492       .  S
N43          C47   1.371       .  A
N43          C44   1.370   1_554  A
N43        C1182   1.445   1_554  S
C44          C45   1.380       .  A
C44        C1169   1.504       .  S
C45          C46   1.358   1_556  A
C45          H48   1.079       .  S
C46          C47   1.384       .  A
C46          H49   1.078       .  S
C47        C1150   1.499       .  S
O50         Ni58   1.944       .  S
O50          C60   1.285       .  A
O51         Ni58   1.949   1_655  S
O51          C61   1.285       .  A
O52         Ni58   1.937       .  S
O52          C62   1.285       .  A
O53         Ni58   1.937   1_655  S
O53          C63   1.285       .  A
O54         Ni59   1.934   1_655  S
O54          C63   1.282   1_554  A
O55         Ni59   1.934       .  S
O55          C62   1.282   1_554  A
O56         Ni59   1.947   1_655  S
O56          C61   1.287   1_554  A
O57         Ni59   1.944       .  S
O57          C60   1.286   1_554  A
Ni58        Ni59   2.382   1_556  S
C60        C1313   1.508       .  S
C61        C1118   1.512       .  S
C62        C1185   1.496       .  S
C63        C1134   1.495       .  S
N64          C68   1.371   1_545  A
N64          C65   1.371       .  A
N64        C1105   1.457       .  S
C65          C66   1.383       .  A
C65        C1070   1.487       .  S
C66          C67   1.362   1_545  A
C66          H69   1.083       .  S
C67          C68   1.377       .  A
C67          H70   1.083       .  S
C68        C1086   1.493       .  S
O71         Ni79   1.935       .  S
O71          C81   1.284       .  A
O72         Ni79   1.933   1_554  S
O72          C82   1.284       .  A
O73         Ni79   1.941       .  S
O73          C83   1.285       .  A
O74         Ni79   1.935   1_554  S
O74          C84   1.284   1_545  A
O75         Ni80   1.946   1_554  S
O75          C84   1.286       .  A
O76         Ni80   1.946       .  S
O76          C83   1.287   1_565  A
O77         Ni80   1.926   1_554  S
O77          C82   1.282   1_565  A
O78         Ni80   1.920       .  S
O78          C81   1.281   1_565  A
Ni79        Ni80   2.383   1_545  S
C81        C1054   1.488       .  S
C82        C1102   1.491       .  S
C83        C1041   1.507       .  S
C84        C1265   1.504       .  S
N85          C89   1.369   1_554  A
N85          C86   1.356       .  A
N85        C1137   1.457   1_554  S
C86          C87   1.375       .  A
C86        C1022   1.480       .  S
C87          C88   1.365   1_554  A
C87          H90   1.080       .  S
C88          C89   1.388       .  A
C88          H91   1.073       .  S
C89        C1009   1.507       .  S
C92          H93   1.094       .  S
C92          C98   1.544       .  S
C92          C97   1.563       .  S
C92          C96   1.565       .  S
C94          H95   1.084       .  S
C94         C100   1.554       .  S
C94          C99   1.527       .  S
C94         C101   1.554       .  S
C96          C99   1.372       .  D
C96        C1409   1.498       .  S
C97         C100   1.409       .  D
C97        C1217   1.534       .  S
C98         C101   1.379       .  D
C98         C974   1.536       .  S
C99        C1089   1.512       .  S
C100        C990   1.539       .  S
C101        C958   1.494       .  S
N102        C106   1.372       .  A
N102        C103   1.378       .  A
N102        C926   1.458       .  S
C103        C104   1.380       .  A
C103        C977   1.499       .  S
C104        C105   1.365       .  A
C104        H107   1.083       .  S
C105        C106   1.381       .  A
C105        H108   1.083       .  S
C106        C942   1.497       .  S
C109        H110   1.110       .  S
C109        C115   1.535       .  S
C109        C114   1.556       .  S
C109        C113   1.539       .  S
C111        H112   1.104       .  S
C111        C117   1.547       .  S
C111        C116   1.547       .  S
C111        C118   1.534       .  S
C113        C116   1.382       .  D
C113       C1025   1.479       .  S
C114        C117   1.387       .  D
C114       C1073   1.510       .  S
C115        C118   1.370       .  D
C115        C910   1.496       .  S
C116        C945   1.529       .  S
C117        C897   1.494       .  S
C118       C1454   1.484       .  S
N119        C123   1.351       .  A
N119        C120   1.352       .  A
N119        C878   1.439       .  S
C120        C121   1.387       .  A
C120        C862   1.472       .  S
C121        C122   1.372       .  A
C121        H124   1.083       .  S
C122        C123   1.378       .  A
C122        H125   1.082       .  S
C123        C894   1.466       .  S
N126        C130   1.361       .  A
N126        C127   1.359   1_455  A
N126        C846   1.444       .  S
C127        C128   1.382       .  A
C127        C830   1.480       .  S
C128        C129   1.371   1_655  A
C128        H131   1.082       .  S
C129        C130   1.383       .  A
C129        H132   1.082       .  S
C130        C814   1.489       .  S
O133       Ni141   1.936       .  S
O133        C143   1.285   1_655  A
O134       Ni141   1.943   1_565  S
O134        C144   1.286       .  A
O135       Ni141   1.920       .  S
O135        C145   1.280       .  A
O136       Ni141   1.917   1_565  S
O136        C146   1.279       .  A
O137       Ni142   1.927   1_565  S
O137        C146   1.283   1_455  A
O138       Ni142   1.925       .  S
O138        C145   1.284   1_455  A
O139       Ni142   1.929   1_565  S
O139        C144   1.282   1_455  A
O140       Ni142   1.931       .  S
O140        C143   1.282       .  A
Ni141      Ni142   2.387   1_655  S
C143        C782   1.490       .  S
C144        C769   1.494       .  S
C145        C849   1.487       .  S
C146        C801   1.475       .  S
N147        C151   1.368       .  A
N147        C148   1.368       .  A
N147        C753   1.447       .  S
C148        C149   1.384       .  A
C148        C734   1.498       .  S
C149        C150   1.365       .  A
C149        H152   1.083       .  S
C150        C151   1.380       .  A
C150        H153   1.082       .  S
C151        C718   1.494       .  S
N154        C158   1.354       .  A
N154        C155   1.365   1_545  A
N154       C1057   1.448       .  S
C155        C156   1.386       .  A
C155        C686   1.505       .  S
C156        C157   1.368   1_565  A
C156        H159   1.079       .  S
C157        C158   1.377       .  A
C157        H160   1.082       .  S
C158        C705   1.479       .  S
C161        H162   1.098       .  S
C161        C167   1.565       .  S
C161        C166   1.563       .  S
C161        C165   1.550       .  S
C163        H164   1.107       .  S
C163        C169   1.559       .  S
C163        C168   1.549       .  S
C163        C170   1.533       .  S
C165        C168   1.372       .  D
C165        C737   1.520       .  S
C166        C169   1.402       .  D
C166        C673   1.541       .  S
C167        C170   1.383       .  D
C167       C1345   1.503       .  S
C168        C817   1.495       .  S
C169        C702   1.513       .  S
C170       C1297   1.516       .  S
N171        C175   1.366       .  A
N171        C172   1.364       .  A
N171        C638   1.447       .  S
C172        C173   1.376       .  A
C172        C654   1.488       .  S
C173        C174   1.363       .  A
C173        H176   1.078       .  S
C174        C175   1.387       .  A
C174        H177   1.076       .  S
C175        C670   1.498       .  S
C178        H179   1.108       .  S
C178        C184   1.548       .  S
C178        C183   1.556       .  S
C178        C182   1.540       .  S
C180        H181   1.107       .  S
C180        C186   1.526       .  S
C180        C185   1.565       .  S
C180        C187   1.554       .  S
C182        C185   1.385       .  D
C182       C1441   1.512       .  S
C183        C186   1.369       .  D
C183        C622   1.498       .  S
C184        C187   1.390       .  D
C184        C657   1.506       .  S
C185        C833   1.510       .  S
C186       C1006   1.495       .  S
C187        C606   1.522       .  S
N188        C192   1.364       .  A
N188        C189   1.366       .  A
N188        C590   1.449       .  S
C189        C190   1.384       .  A
C189        C574   1.490       .  S
C190        C191   1.364       .  A
C190        H193   1.080       .  S
C191        C192   1.383       .  A
C191        H194   1.080       .  S
C192        C625   1.500       .  S
C195        H196   1.104       .  S
C195        C201   1.558       .  S
C195        C200   1.549       .  S
C195        C199   1.544       .  S
C197        H198   1.109       .  S
C197        C203   1.573       .  S
C197        C202   1.562       .  S
C197        C204   1.541       .  S
C199        C202   1.387       .  D
C199        C542   1.520       .  S
C200        C203   1.394       .  D
C200        C558   1.511       .  S
C201        C204   1.376       .  D
C201        C526   1.505       .  S
C202        C510   1.521       .  S
C203       C1201   1.535       .  S
C204        C577   1.511       .  S
N205        C209   1.360       .  A
N205        C206   1.366       .  A
N205        C494   1.447       .  S
C206        C207   1.385       .  A
C206        C513   1.497       .  S
C207        C208   1.372       .  A
C207        H210   1.083       .  S
C208        C209   1.379       .  A
C208        H211   1.082       .  S
C209        C478   1.491       .  S
C212        H213   1.090       .  S
C212        C218   1.565       .  S
C212        C217   1.543       .  S
C212        C216   1.574       .  S
C214        H215   1.105       .  S
C214        C220   1.546       .  S
C214        C219   1.545       .  S
C214        C221   1.528       .  S
C216        C219   1.409       .  D
C216        C446   1.546       .  S
C217        C220   1.367       .  D
C217        C689   1.486       .  S
C218        C221   1.379       .  D
C218       C1166   1.526       .  S
C219        C462   1.524       .  S
C220        C481   1.505       .  S
C221       C1361   1.500       .  S
N222        C226   1.365   1_655  A
N222        C223   1.362       .  A
N222        C798   1.441       .  S
C223        C224   1.379       .  A
C223        C993   1.480       .  S
C224        C225   1.367   1_655  A
C224        H227   1.081       .  S
C225        C226   1.387       .  A
C225        H228   1.078       .  S
C226        C430   1.503       .  S
C229        H230   1.102       .  S
C229        C235   1.541       .  S
C229        C234   1.540       .  S
C229        C233   1.531       .  S
C231        H232   1.091       .  S
C231        C237   1.560       .  S
C231        C236   1.560       .  S
C231        C238   1.544       .  S
C233        C236   1.381       .  D
C233        C401   1.528       .  S
C234        C237   1.390       .  D
C234       C1390   1.517       .  S
C235        C238   1.380       .  D
C235        C414   1.465       .  S
C236        C433   1.500       .  S
C237       C1246   1.505       .  S
C238       C1153   1.538       .  S
N239        C243   1.355       .  A
N239        C240   1.358       .  A
N239        C382   1.445       .  S
C240        C241   1.380       .  A
C240        C417   1.473       .  S
C241        C242   1.359       .  A
C241        H244   1.081       .  S
C242        C243   1.379       .  A
C242        H245   1.083       .  S
C243        C369   1.468       .  S
N246        C250   1.367       .  A
N246        C247   1.364       .  A
N246        C350   1.443       .  S
C247        C248   1.379       .  A
C247        C465   1.493       .  S
C248        C249   1.366       .  A
C248        H251   1.082       .  S
C249        C250   1.387       .  A
C249        H252   1.078       .  S
C250        C398   1.499       .  S
N253        C257   1.367   1_655  A
N253        C254   1.362       .  A
N253        C766   1.442       .  S
C254        C255   1.383       .  A
C254        C561   1.489       .  S
C255        C256   1.366       .  A
C255        H258   1.083       .  S
C256        C257   1.383   1_655  A
C256        H259   1.081   1_655  S
C257        C449   1.495       .  S
N260        C264   1.371       .  A
N260        C261   1.376   1_545  A
N260       C1038   1.465       .  S
C261        C262   1.381       .  A
C261        C545   1.488       .  S
C262        C263   1.353   1_565  A
C262        H265   1.082       .  S
C263        C264   1.381       .  A
C263        H266   1.080       .  S
C264        C609   1.488       .  S
N267        C271   1.363       .  A
N267        C268   1.370   1_455  A
N267        C785   1.458       .  S
C268        C269   1.380       .  A
C268        C913   1.504       .  S
C269        C270   1.359   1_655  A
C269        H272   1.078       .  S
C270        C271   1.379       .  A
C270        H273   1.073       .  S
C271        C334   1.484       .  S
C274        H275   1.108       .  S
C274        C280   1.540       .  S
C274        C279   1.525       .  S
C274        C278   1.543       .  S
C276        H277   1.089       .  S
C276        C282   1.540       .  S
C276        C281   1.556       .  S
C276        C283   1.544       .  S
C278        C281   1.406       .  D
C278        C366   1.476       .  S
C279        C282   1.367       .  D
C279        C865   1.488       .  S
C280        C283   1.387       .  D
C280        C721   1.527       .  S
C281       C1329   1.555       .  S
C282       C1278   1.490       .  S
C283        C337   1.485       .  S
N284        C288   1.365       .  A
N284        C285   1.363   1_556  A
N284       C1121   1.452       .  S
C285        C286   1.376       .  A
C285        C961   1.485       .  S
C286        C287   1.366   1_554  A
C286        H289   1.083       .  S
C287        C288   1.386       .  A
C287        H290   1.083       .  S
C288        C529   1.485       .  S
O291       Ni299   1.942       .  S
O291        C301   1.285       .  A
O292       Ni299   1.931   1_556  S
O292        C302   1.284       .  A
O293       Ni299   1.927   1_556  S
O293        C303   1.283       .  A
O294       Ni299   1.928       .  S
O294        C304   1.283       .  A
O295       Ni300   1.924       .  S
O295        C304   1.281       .  A
O296       Ni300   1.919   1_556  S
O296        C303   1.280       .  A
O297       Ni300   1.936   1_556  S
O297        C302   1.284       .  A
O298       Ni300   1.935       .  S
O298        C301   1.285       .  A
Ni299      Ni300   2.385       .  S
C301        C929   1.503       .  S
C302       C1377   1.499       .  S
C303        C593   1.479       .  S
C304        C385   1.482       .  S
O305       Ni313   1.924   1_545  S
O305        C315   1.280       .  A
O306       Ni313   1.924       .  S
O306        C316   1.281       .  A
O307       Ni313   1.939       .  S
O307        C317   1.286       .  A
O308       Ni313   1.934   1_545  S
O308        C318   1.286       .  A
O309       Ni314   1.926       .  S
O309        C318   1.280       .  A
O310       Ni314   1.926   1_565  S
O310        C317   1.281       .  A
O311       Ni314   1.937   1_565  S
O311        C316   1.285       .  A
O312       Ni314   1.934       .  S
O312        C315   1.285       .  A
Ni313      Ni314   2.385   1_565  S
C315        C881   1.483       .  S
C316        C497   1.487       .  S
C317       C1425   1.494       .  S
C318        C641   1.498       .  S
O319       Ni327   1.938   1_455  S
O319        C329   1.286       .  A
O320       Ni327   1.949       .  S
O320        C330   1.287       .  A
O321       Ni327   1.927       .  S
O321        C331   1.281       .  A
O322       Ni327   1.928   1_455  S
O322        C332   1.281       .  A
O323       Ni328   1.948   1_455  S
O323        C332   1.287       .  A
O324       Ni328   1.940       .  S
O324        C331   1.286       .  A
O325       Ni328   1.924       .  S
O325        C330   1.281       .  A
O326       Ni328   1.920   1_455  S
O326        C329   1.279       .  A
Ni327      Ni328   2.384       .  S
C329        C353   1.486       .  S
C330       C1473   1.498       .  S
C331       C1233   1.497       .  S
C332        C750   1.497       .  S
C333        C334   1.409       .  A
C333        C338   1.415       .  A
C333        H340   1.081       .  S
C334        C335   1.417       .  A
C335        C336   1.395       .  A
C335        C342   1.515       .  S
C336        C337   1.396       .  A
C336        H341   1.083       .  S
C337        C338   1.411       .  A
C338        C339   1.513       .  S
C339        F343   1.384       .  S
C339        F344   1.382       .  S
C339        F345   1.383       .  S
C342        F346   1.380       .  S
C342        F347   1.383       .  S
C342        F348   1.386       .  S
C349        C350   1.404       .  A
C349        C354   1.414       .  A
C349        H356   1.083       .  S
C350        C351   1.429       .  A
C351        C352   1.405       .  A
C351        C358   1.522       .  S
C352        C353   1.397       .  A
C352        H357   1.083       .  S
C353        C354   1.413       .  A
C354        C355   1.510       .  S
C355        F359   1.383       .  S
C355        F360   1.384       .  S
C355        F361   1.383       .  S
C358        F362   1.384       .  S
C358        F363   1.374       .  S
C358        F364   1.383       .  S
C365        C366   1.395       .  A
C365        C370   1.385       .  A
C365        H372   1.077       .  S
C366        C367   1.416       .  A
C367        C368   1.410       .  A
C367        C374   1.511       .  S
C368        C369   1.403       .  A
C368        H373   1.083       .  S
C369        C370   1.414       .  A
C370        C371   1.517       .  S
C371        F375   1.385       .  S
C371        F376   1.377       .  S
C371        F377   1.380       .  S
C374        F378   1.381       .  S
C374        F379   1.381       .  S
C374        F380   1.384       .  S
C381        C382   1.405       .  A
C381        C386   1.405       .  A
C381        H388   1.083       .  S
C382        C383   1.411       .  A
C383        C384   1.414       .  A
C383        C390   1.511       .  S
C384        C385   1.406       .  A
C384        H389   1.083       .  S
C385        C386   1.416       .  A
C386        C387   1.517       .  S
C387        F391   1.385       .  S
C387        F392   1.382       .  S
C387        F393   1.383       .  S
C390        F394   1.381       .  S
C390        F395   1.382       .  S
C390        F396   1.385       .  S
C397        C398   1.398       .  A
C397        C402   1.406       .  A
C397        H404   1.081       .  S
C398        C399   1.411       .  A
C399        C400   1.421       .  A
C399        C406   1.510       .  S
C400        C401   1.416       .  A
C400        H405   1.082       .  S
C401        C402   1.432       .  A
C402        C403   1.517       .  S
C403        F407   1.385       .  S
C403        F408   1.370       .  S
C403        F409   1.378       .  S
C406        F410   1.380       .  S
C406        F411   1.383       .  S
C406        F412   1.382       .  S
C413        C414   1.391       .  A
C413        C418   1.386       .  A
C413        H420   1.083       .  S
C414        C415   1.413       .  A
C415        C416   1.406       .  A
C415        C422   1.511       .  S
C416        C417   1.403       .  A
C416        H421   1.084       .  S
C417        C418   1.423       .  A
C418        C419   1.518       .  S
C419        F423   1.386       .  S
C419        F424   1.375       .  S
C419        F425   1.379       .  S
C422        F426   1.383       .  S
C422        F427   1.382       .  S
C422        F428   1.376       .  S
C429        C430   1.408       .  A
C429        C434   1.407       .  A
C429        H436   1.083       .  S
C430        C431   1.421       .  A
C431        C432   1.410       .  A
C431        C438   1.509       .  S
C432        C433   1.403       .  A
C432        H437   1.083       .  S
C433        C434   1.418       .  A
C434        C435   1.518       .  S
C435        F439   1.385       .  S
C435        F440   1.382       .  S
C435        F441   1.379       .  S
C438        F442   1.377       .  S
C438        F443   1.377       .  S
C438        F444   1.383       .  S
C445        C446   1.413       .  A
C445        C450   1.415       .  A
C445        H452   1.078       .  S
C446        C447   1.435       .  A
C447        C448   1.413       .  A
C447        C454   1.520       .  S
C448        C449   1.401       .  A
C448        H453   1.084       .  S
C449        C450   1.409       .  A
C450        C451   1.508       .  S
C451        F455   1.376       .  S
C451        F456   1.378       .  S
C451        F457   1.381       .  S
C454        F458   1.381       .  S
C454        F459   1.373       .  S
C454        F460   1.386       .  S
C461        C462   1.405       .  A
C461        C466   1.403       .  A
C461        H468   1.075       .  S
C462        C463   1.425       .  A
C463        C464   1.420       .  A
C463        C470   1.511       .  S
C464        C465   1.406       .  A
C464        H469   1.084       .  S
C465        C466   1.415       .  A
C466        C467   1.518       .  S
C467        F471   1.385       .  S
C467        F472   1.382       .  S
C467        F473   1.383       .  S
C470        F474   1.384       .  S
C470        F475   1.375       .  S
C470        F476   1.381       .  S
C477        C478   1.403       .  A
C477        C482   1.411       .  A
C477        H484   1.079       .  S
C478        C479   1.416       .  A
C479        C480   1.404       .  A
C479        C486   1.513       .  S
C480        C481   1.400       .  A
C480        H485   1.075       .  S
C481        C482   1.418       .  A
C482        C483   1.512       .  S
C483        F487   1.383       .  S
C483        F488   1.379       .  S
C483        F489   1.381       .  S
C486        F490   1.383       .  S
C486        F491   1.381       .  S
C486        F492   1.383       .  S
C493        C494   1.402       .  A
C493        C498   1.415       .  A
C493        H500   1.082       .  S
C494        C495   1.428       .  A
C495        C496   1.409       .  A
C495        C502   1.525       .  S
C496        C497   1.398       .  A
C496        H501   1.083       .  S
C497        C498   1.419       .  A
C498        C499   1.514       .  S
C499        F503   1.385       .  S
C499        F504   1.383       .  S
C499        F505   1.381       .  S
C502        F506   1.385       .  S
C502        F507   1.377       .  S
C502        F508   1.379       .  S
C509        C510   1.411       .  A
C509        C514   1.416       .  A
C509        H516   1.077       .  S
C510        C511   1.422       .  A
C511        C512   1.409       .  A
C511        C518   1.512       .  S
C512        C513   1.401       .  A
C512        H517   1.075       .  S
C513        C514   1.411       .  A
C514        C515   1.511       .  S
C515        F519   1.382       .  S
C515        F520   1.381       .  S
C515        F521   1.382       .  S
C518        F522   1.378       .  S
C518        F523   1.375       .  S
C518        F524   1.385       .  S
C525        C526   1.413       .  A
C525        C530   1.417       .  A
C525        H532   1.082       .  S
C526        C527   1.426       .  A
C527        C528   1.401       .  A
C527        C534   1.514       .  S
C528        C529   1.396       .  A
C528        H533   1.082       .  S
C529        C530   1.409       .  A
C530        C531   1.514       .  S
C531        F535   1.383       .  S
C531        F536   1.383       .  S
C531        F537   1.384       .  S
C534        F538   1.379       .  S
C534        F539   1.373       .  S
C534        F540   1.385       .  S
C541        C542   1.403       .  A
C541        C546   1.396       .  A
C541        H548   1.077       .  S
C542        C543   1.437       .  A
C543        C544   1.411       .  A
C543        C550   1.513       .  S
C544        C545   1.397       .  A
C544        H549   1.083       .  S
C545        C546   1.420       .  A
C546        C547   1.521       .  S
C547        F551   1.384       .  S
C547        F552   1.380       .  S
C547        F553   1.384       .  S
C550        F554   1.385       .  S
C550        F555   1.361       .  S
C550        F556   1.383       .  S
C557        C558   1.410       .  A
C557        C562   1.397       .  A
C557        H564   1.080       .  S
C558        C559   1.423       .  A
C559        C560   1.417       .  A
C559        C566   1.513       .  S
C560        C561   1.405       .  A
C560        H565   1.079       .  S
C561        C562   1.411       .  A
C562        C563   1.517       .  S
C563        F567   1.383       .  S
C563        F568   1.384       .  S
C563        F569   1.381       .  S
C566        F570   1.381       .  S
C566        F571   1.380       .  S
C566        F572   1.383       .  S
C573        C574   1.398       .  A
C573        C578   1.403       .  A
C573        H580   1.081       .  S
C574        C575   1.415       .  A
C575        C576   1.409       .  A
C575        C582   1.511       .  S
C576        C577   1.403       .  A
C576        H581   1.068       .  S
C577        C578   1.421       .  A
C578        C579   1.503       .  S
C579        F583   1.385       .  S
C579        F584   1.371       .  S
C579        F585   1.377       .  S
C582        F586   1.381       .  S
C582        F587   1.377       .  S
C582        F588   1.383       .  S
C589        C590   1.410       .  A
C589        C594   1.398       .  A
C589        H596   1.082       .  S
C590        C591   1.418       .  A
C591        C592   1.414       .  A
C591        C598   1.514       .  S
C592        C593   1.408       .  A
C592        H597   1.084       .  S
C593        C594   1.414       .  A
C594        C595   1.522       .  S
C595        F599   1.382       .  S
C595        F600   1.385       .  S
C595        F601   1.371   1_556  S
C598        F602   1.382       .  S
C598        F603   1.382       .  S
C598        F604   1.383       .  S
C605        C606   1.405       .  A
C605        C610   1.405       .  A
C605        H612   1.073       .  S
C606        C607   1.426       .  A
C607        C608   1.416       .  A
C607        C614   1.512       .  S
C608        C609   1.400       .  A
C608        H613   1.083       .  S
C609        C610   1.417       .  A
C610        C611   1.517       .  S
C611        F615   1.383       .  S
C611        F616   1.383       .  S
C611        F617   1.384       .  S
C614        F618   1.385       .  S
C614        F619   1.369       .  S
C614        F620   1.382       .  S
C621        C622   1.397       .  A
C621        C626   1.394       .  A
C621        H628   1.077       .  S
C622        C623   1.419       .  A
C623        C624   1.414       .  A
C623        C630   1.513       .  S
C624        C625   1.408       .  A
C624        H629   1.078       .  S
C625        C626   1.423       .  A
C626        C627   1.523       .  S
C627        F631   1.386       .  S
C627        F632   1.382       .  S
C627        F633   1.380       .  S
C630        F634   1.381       .  S
C630        F635   1.374       .  S
C630        F636   1.382       .  S
C637        C638   1.404       .  A
C637        C642   1.417       .  A
C637        H644   1.082       .  S
C638        C639   1.427       .  A
C639        C640   1.404       .  A
C639        C646   1.521       .  S
C640        C641   1.399       .  A
C640        H645   1.084       .  S
C641        C642   1.425       .  A
C642        C643   1.517       .  S
C643        F647   1.385       .  S
C643        F648   1.382       .  S
C643        F649   1.379       .  S
C646        F650   1.375       .  S
C646        F651   1.384       .  S
C646        F652   1.382       .  S
C653        C654   1.401       .  A
C653        C658   1.410       .  A
C653        H660   1.078       .  S
C654        C655   1.417       .  A
C655        C656   1.405       .  A
C655        C662   1.510       .  S
C656        C657   1.404       .  A
C656        H661   1.081       .  S
C657        C658   1.419       .  A
C658        C659   1.509       .  S
C659        F663   1.372       .  S
C659        F664   1.378       .  S
C659        F665   1.384       .  S
C662        F666   1.382       .  S
C662        F667   1.383       .  S
C662        F668   1.385       .  S
C669        C670   1.394       .  A
C669        C674   1.410       .  A
C669        H676   1.080       .  S
C670        C671   1.408       .  A
C671        C672   1.420       .  A
C671        C678   1.511       .  S
C672        C673   1.421       .  A
C672        H677   1.083       .  S
C673        C674   1.441       .  A
C674        C675   1.520       .  S
C675        F679   1.386       .  S
C675        F680   1.372       .  S
C675        F681   1.372       .  S
C678        F682   1.378       .  S
C678        F683   1.382       .  S
C678        F684   1.383       .  S
C685        C686   1.408       .  A
C685        C690   1.411       .  A
C685        H692   1.080       .  S
C686        C687   1.432       .  A
C687        C688   1.398       .  A
C687        C694   1.523       .  S
C688        C689   1.393       .  A
C688        H693   1.084       .  S
C689        C690   1.418       .  A
C690        C691   1.516       .  S
C691        F695   1.383       .  S
C691        F696   1.380       .  S
C691        F697   1.382       .  S
C694        F698   1.383       .  S
C694        F699   1.379       .  S
C694        F700   1.385       .  S
C701        C702   1.407       .  A
C701        C706   1.399       .  A
C701        H708   1.080       .  S
C702        C703   1.421       .  A
C703        C704   1.410       .  A
C703        C710   1.504       .  S
C704        C705   1.399       .  A
C704        H709   1.084       .  S
C705        C706   1.413       .  A
C706        C707   1.516       .  S
C707        F711   1.384       .  S
C707        F712   1.380       .  S
C707        F713   1.383       .  S
C710        F714   1.374       .  S
C710        F715   1.374       .  S
C710        F716   1.384       .  S
C717        C718   1.406       .  A
C717        C722   1.413       .  A
C717        H724   1.084       .  S
C718        C719   1.414       .  A
C719        C720   1.408       .  A
C719        C726   1.502       .  S
C720        C721   1.400       .  A
C720        H725   1.078       .  S
C721        C722   1.420       .  A
C722        C723   1.518       .  S
C723        F727   1.386       .  S
C723        F728   1.382       .  S
C723        F729   1.363       .  S
C726        F730   1.379       .  S
C726        F731   1.380       .  S
C726        F732   1.383       .  S
C733        C734   1.407       .  A
C733        C738   1.411       .  A
C733        H740   1.083       .  S
C734        C735   1.415       .  A
C735        C736   1.410       .  A
C735        C742   1.516       .  S
C736        C737   1.409       .  A
C736        H741   1.074       .  S
C737        C738   1.423       .  A
C738        C739   1.515       .  S
C739        F743   1.385       .  S
C739        F744   1.380       .  S
C739        F745   1.378       .  S
C742        F746   1.383       .  S
C742        F747   1.378       .  S
C742        F748   1.383       .  S
C749        C750   1.411       .  A
C749        C754   1.421       .  A
C749        H756   1.078       .  S
C750        C751   1.415       .  A
C751        C752   1.405       .  A
C751        C758   1.509       .  S
C752        C753   1.404       .  A
C752        H757   1.083       .  S
C753        C754   1.411       .  A
C754        C755   1.511       .  S
C755        F759   1.384       .  S
C755        F760   1.383       .  S
C755        F761   1.383       .  S
C758        F762   1.383       .  S
C758        F763   1.383   1_455  S
C758        F764   1.384       .  S
C765        C766   1.399       .  A
C765        C770   1.413       .  A
C765        H772   1.083       .  S
C766        C767   1.425       .  A
C767        C768   1.410       .  A
C767        C774   1.521       .  S
C768        C769   1.401       .  A
C768        H773   1.083       .  S
C769        C770   1.419       .  A
C770        C771   1.510   1_655  S
C771        F775   1.385       .  S
C771        F776   1.383   1_465  S
C771        F777   1.381       .  S
C774        F778   1.383       .  S
C774        F779   1.378       .  S
C774        F780   1.379       .  S
C781        C782   1.410       .  A
C781        C786   1.417       .  A
C781        H788   1.083   1_455  S
C782        C783   1.419       .  A
C783        C784   1.400       .  A
C783        C790   1.518       .  S
C784        C785   1.410       .  A
C784        H789   1.083       .  S
C785        C786   1.419       .  A
C786        C787   1.514       .  S
C787        F791   1.383       .  S
C787        F792   1.383   1_455  S
C787        F793   1.383       .  S
C790        F794   1.378       .  S
C790        F795   1.384       .  S
C790        F796   1.384       .  S
C797        C798   1.408       .  A
C797        C802   1.417       .  A
C797        H804   1.083       .  S
C798        C799   1.429       .  A
C799        C800   1.399       .  A
C799        C806   1.521       .  S
C800        C801   1.392       .  A
C800        H805   1.084       .  S
C801        C802   1.414       .  A
C802        C803   1.514       .  S
C803        F807   1.384       .  S
C803        F808   1.383   1_655  S
C803        F809   1.383       .  S
C806        F810   1.381   1_655  S
C806        F811   1.371       .  S
C806        F812   1.382       .  S
C813        C814   1.406       .  A
C813        C818   1.415       .  A
C813        H820   1.074       .  S
C814        C815   1.417       .  A
C815        C816   1.397       .  A
C815        C822   1.520       .  S
C816        C817   1.396       .  A
C816        H821   1.076       .  S
C817        C818   1.415       .  A
C818        C819   1.515       .  S
C819        F823   1.380       .  S
C819        F824   1.384       .  S
C819        F825   1.376       .  S
C822        F826   1.382       .  S
C822        F827   1.382       .  S
C822        F828   1.385       .  S
C829        C830   1.399       .  A
C829        C834   1.406       .  A
C829        H836   1.084       .  S
C830        C831   1.409       .  A
C831        C832   1.406       .  A
C831        C838   1.514       .  S
C832        C833   1.407       .  A
C832        H837   1.074       .  S
C833        C834   1.432       .  A
C834        C835   1.520       .  S
C835        F839   1.384       .  S
C835        F840   1.385       .  S
C835        F841   1.369       .  S
C838        F842   1.381       .  S
C838        F843   1.383       .  S
C838        F844   1.383       .  S
C845        C846   1.406   1_655  A
C845        C850   1.415       .  A
C845        H852   1.082       .  S
C846        C847   1.425       .  A
C847        C848   1.401       .  A
C847        C854   1.524       .  S
C848        C849   1.398   1_455  A
C848        H853   1.080       .  S
C849        C850   1.419       .  A
C850        C851   1.517       .  S
C851        F855   1.382       .  S
C851        F856   1.377       .  S
C851        F857   1.384       .  S
C854        F858   1.382       .  S
C854        F859   1.376       .  S
C854        F860   1.383       .  S
C861        C862   1.403       .  A
C861        C866   1.403       .  A
C861        H868   1.085       .  S
C862        C863   1.405       .  A
C863        C864   1.405       .  A
C863        C870   1.515       .  S
C864        C865   1.404       .  A
C864        H869   1.083       .  S
C865        C866   1.417       .  A
C866        C867   1.515       .  S
C867        F871   1.384       .  S
C867        F872   1.376       .  S
C867        F873   1.382       .  S
C870        F874   1.383       .  S
C870        F875   1.381       .  S
C870        F876   1.385       .  S
C877        C878   1.397       .  A
C877        C882   1.407       .  A
C877        H884   1.082       .  S
C878        C879   1.422       .  A
C879        C880   1.404       .  A
C879        C886   1.518       .  S
C880        C881   1.398       .  A
C880        H885   1.083       .  S
C881        C882   1.418       .  A
C882        C883   1.505       .  S
C883        F887   1.384       .  S
C883        F888   1.381       .  S
C883        F889   1.381       .  S
C886        F890   1.383       .  S
C886        F891   1.378       .  S
C886        F892   1.384       .  S
C893        C894   1.389       .  A
C893        C898   1.398       .  A
C893        H900   1.082       .  S
C894        C895   1.415       .  A
C895        C896   1.406       .  A
C895        C902   1.518       .  S
C896        C897   1.404       .  A
C896        H901   1.082       .  S
C897        C898   1.427       .  A
C898        C899   1.512       .  S
C899        F903   1.379       .  S
C899        F904   1.372       .  S
C899        F905   1.386       .  S
C902        F906   1.382       .  S
C902        F907   1.381       .  S
C902        F908   1.384       .  S
C909        C910   1.394       .  A
C909        C914   1.391       .  A
C909        H916   1.079       .  S
C910        C911   1.419       .  A
C911        C912   1.413       .  A
C911        C918   1.512       .  S
C912        C913   1.406       .  A
C912        H917   1.077       .  S
C913        C914   1.435       .  A
C914        C915   1.525       .  S
C915        F919   1.386       .  S
C915        F920   1.371       .  S
C915        F921   1.383       .  S
C918        F922   1.383       .  S
C918        F923   1.382       .  S
C918        F924   1.374       .  S
C925        C926   1.406       .  A
C925        C930   1.421       .  A
C925        H932   1.083       .  S
C926        C927   1.424       .  A
C927        C928   1.411       .  A
C927        C934   1.517       .  S
C928        C929   1.403       .  A
C928        H933   1.085       .  S
C929        C930   1.431       .  A
C930        C931   1.522       .  S
C931        F935   1.381       .  S
C931        F936   1.385       .  S
C931        F937   1.377       .  S
C934        F938   1.382       .  S
C934        F939   1.379       .  S
C934        F940   1.384       .  S
C941        C942   1.404       .  A
C941        C946   1.423       .  A
C941        H948   1.083       .  S
C942        C943   1.417       .  A
C943        C944   1.402       .  A
C943        C950   1.517       .  S
C944        C945   1.403       .  A
C944        H949   1.070       .  S
C945        C946   1.428       .  A
C946        C947   1.510       .  S
C947        F951   1.379       .  S
C947        F952   1.380       .  S
C947        F953   1.384       .  S
C950        F954   1.381       .  S
C950        F955   1.381       .  S
C950        F956   1.385       .  S
C957        C958   1.399       .  A
C957        C962   1.406       .  A
C957        H964   1.084       .  S
C958        C959   1.426       .  A
C959        C960   1.406       .  A
C959        C966   1.515       .  S
C960        C961   1.397       .  A
C960        H965   1.082       .  S
C961        C962   1.422       .  A
C962        C963   1.520       .  S
C963        F967   1.385       .  S
C963        F968   1.379       .  S
C963        F969   1.380       .  S
C966        F970   1.374       .  S
C966        F971   1.384       .  S
C966        F972   1.383       .  S
C973        C974   1.409       .  A
C973        C978   1.413       .  A
C973        H980   1.073       .  S
C974        C975   1.429       .  A
C975        C976   1.417       .  A
C975        C982   1.513       .  S
C976        C977   1.404       .  A
C976        H981   1.080       .  S
C977        C978   1.416       .  A
C978        C979   1.512       .  S
C979        F983   1.385       .  S
C979        F984   1.384       .  S
C979        F985   1.380       .  S
C982        F986   1.378       .  S
C982        F987   1.382       .  S
C982        F988   1.385       .  S
C989        C990   1.415       .  A
C989        C994   1.412       .  A
C989        H996   1.080       .  S
C990        C991   1.444       .  A
C991        C992   1.408       .  A
C991        C998   1.520       .  S
C992        C993   1.391       .  A
C992        H997   1.084       .  S
C993        C994   1.404       .  A
C994        C995   1.508       .  S
C995        F999   1.379       .  S
C995       F1000   1.382       .  S
C995       F1001   1.382       .  S
C998       F1002   1.375       .  S
C998       F1003   1.386       .  S
C998       F1004   1.384       .  S
C1005      C1006   1.396       .  A
C1005      C1010   1.404       .  A
C1005      H1012   1.080       .  S
C1006      C1007   1.412       .  A
C1007      C1008   1.409       .  A
C1007      C1014   1.516       .  S
C1008      C1009   1.411       .  A
C1008      H1013   1.076       .  S
C1009      C1010   1.435       .  A
C1010      C1011   1.526       .  S
C1011      F1015   1.382       .  S
C1011      F1016   1.375       .  S
C1011      F1017   1.385       .  S
C1014      F1018   1.375       .  S
C1014      F1019   1.381       .  S
C1014      F1020   1.384       .  S
C1021      C1022   1.399       .  A
C1021      C1026   1.409       .  A
C1021      H1028   1.082       .  S
C1022      C1023   1.421       .  A
C1023      C1024   1.392       .  A
C1023      C1030   1.514       .  S
C1024      C1025   1.391       .  A
C1024      H1029   1.084       .  S
C1025      C1026   1.420       .  A
C1026      C1027   1.513       .  S
C1027      F1031   1.384       .  S
C1027      F1032   1.382       .  S
C1027      F1033   1.371       .  S
C1030      F1034   1.385       .  S
C1030      F1035   1.382       .  S
C1030      F1036   1.380       .  S
C1037      C1038   1.407       .  A
C1037      C1042   1.416       .  A
C1037      H1044   1.082       .  S
C1038      C1039   1.428       .  A
C1039      C1040   1.416   1_545  A
C1039      C1046   1.516   1_545  S
C1040      C1041   1.406   1_565  A
C1040      H1045   1.085       .  S
C1041      C1042   1.427       .  A
C1042      C1043   1.518       .  S
C1043      F1047   1.378       .  S
C1043      F1048   1.384       .  S
C1043      F1049   1.384       .  S
C1046      F1050   1.383       .  S
C1046      F1051   1.373       .  S
C1046      F1052   1.384   1_565  S
C1053      C1054   1.403   1_565  A
C1053      C1058   1.408       .  A
C1053      H1060   1.083       .  S
C1054      C1055   1.422       .  A
C1055      C1056   1.411       .  A
C1055      C1062   1.516       .  S
C1056      C1057   1.403       .  A
C1056      H1061   1.084       .  S
C1057      C1058   1.425   1_545  A
C1058      C1059   1.525       .  S
C1059      F1063   1.384       .  S
C1059      F1064   1.382   1_565  S
C1059      F1065   1.379       .  S
C1062      F1066   1.384       .  S
C1062      F1067   1.379       .  S
C1062      F1068   1.384       .  S
C1069      C1070   1.402       .  A
C1069      C1074   1.410       .  A
C1069      H1076   1.083       .  S
C1070      C1071   1.414       .  A
C1071      C1072   1.410       .  A
C1071      C1078   1.518       .  S
C1072      C1073   1.409       .  A
C1072      H1077   1.078       .  S
C1073      C1074   1.427       .  A
C1074      C1075   1.518       .  S
C1075      F1079   1.378       .  S
C1075      F1080   1.377       .  S
C1075      F1081   1.385       .  S
C1078      F1082   1.382       .  S
C1078      F1083   1.382       .  S
C1078      F1084   1.386       .  S
C1085      C1086   1.404       .  A
C1085      C1090   1.414       .  A
C1085      H1092   1.085       .  S
C1086      C1087   1.419       .  A
C1087      C1088   1.409       .  A
C1087      C1094   1.516       .  S
C1088      C1089   1.402       .  A
C1088      H1093   1.079       .  S
C1089      C1090   1.425       .  A
C1090      C1091   1.513       .  S
C1091      F1095   1.385       .  S
C1091      F1096   1.377       .  S
C1091      F1097   1.382       .  S
C1094      F1098   1.381       .  S
C1094      F1099   1.379       .  S
C1094      F1100   1.383       .  S
C1101      C1102   1.407       .  A
C1101      C1106   1.418       .  A
C1101      H1108   1.083       .  S
C1102      C1103   1.416   1_545  A
C1103      C1104   1.407       .  A
C1103      C1110   1.520       .  S
C1104      C1105   1.406   1_565  A
C1104      H1109   1.080       .  S
C1105      C1106   1.422       .  A
C1106      C1107   1.513       .  S
C1107      F1111   1.380       .  S
C1107      F1112   1.382       .  S
C1107      F1113   1.385       .  S
C1110      F1114   1.385       .  S
C1110      F1115   1.376   1_554  S
C1110      F1116   1.382       .  S
C1117      C1118   1.410       .  A
C1117      C1122   1.416       .  A
C1117      H1124   1.072       .  S
C1118      C1119   1.418   1_556  A
C1119      C1120   1.411       .  A
C1119      C1126   1.509       .  S
C1120      C1121   1.406   1_554  A
C1120      H1125   1.082       .  S
C1121      C1122   1.413       .  A
C1122      C1123   1.512       .  S
C1123      F1127   1.384       .  S
C1123      F1128   1.380       .  S
C1123      F1129   1.381       .  S
C1126      F1130   1.383   1_554  S
C1126      F1131   1.382       .  S
C1126      F1132   1.385       .  S
C1133      C1134   1.409   1_554  A
C1133      C1138   1.418       .  A
C1133      H1140   1.077       .  S
C1134      C1135   1.410       .  A
C1135      C1136   1.398       .  A
C1135      C1142   1.508       .  S
C1136      C1137   1.408       .  A
C1136      H1141   1.080       .  S
C1137      C1138   1.420   1_556  A
C1138      C1139   1.515       .  S
C1139      F1143   1.383   1_554  S
C1139      F1144   1.382       .  S
C1139      F1145   1.384       .  S
C1142      F1146   1.382       .  S
C1142      F1147   1.383   1_556  S
C1142      F1148   1.385       .  S
C1149      C1150   1.398       .  A
C1149      C1154   1.408       .  A
C1149      H1156   1.083       .  S
C1150      C1151   1.413       .  A
C1151      C1152   1.420       .  A
C1151      C1158   1.514       .  S
C1152      C1153   1.417       .  A
C1152      H1157   1.080       .  S
C1153      C1154   1.435       .  A
C1154      C1155   1.515       .  S
C1155      F1159   1.386       .  S
C1155      F1160   1.373       .  S
C1155      F1161   1.375       .  S
C1158      F1162   1.383       .  S
C1158      F1163   1.378       .  S
C1158      F1164   1.381       .  S
C1165      C1166   1.408       .  A
C1165      C1170   1.398       .  A
C1165      H1172   1.076       .  S
C1166      C1167   1.433       .  A
C1167      C1168   1.421       .  A
C1167      C1174   1.511       .  S
C1168      C1169   1.405       .  A
C1168      H1173   1.083       .  S
C1169      C1170   1.415       .  A
C1170      C1171   1.521       .  S
C1171      F1175   1.382       .  S
C1171      F1176   1.384       .  S
C1171      F1177   1.382       .  S
C1174      F1178   1.383       .  S
C1174      F1179   1.376       .  S
C1174      F1180   1.383       .  S
C1181      C1182   1.402       .  A
C1181      C1186   1.407       .  A
C1181      H1188   1.083       .  S
C1182      C1183   1.415   1_556  A
C1183      C1184   1.411       .  A
C1183      C1190   1.513       .  S
C1184      C1185   1.405   1_554  A
C1184      H1189   1.076       .  S
C1185      C1186   1.416       .  A
C1186      C1187   1.508       .  S
C1187      F1191   1.384       .  S
C1187      F1192   1.382       .  S
C1187      F1193   1.382       .  S
C1190      F1194   1.382       .  S
C1190      F1195   1.383       .  S
C1190      F1196   1.383       .  S
C1197      C1198   1.400       .  A
C1197      C1202   1.422       .  A
C1197      H1204   1.084       .  S
C1198      C1199   1.416       .  A
C1199      C1200   1.403       .  A
C1199      C1206   1.521       .  S
C1200      C1201   1.409       .  A
C1200      H1205   1.070       .  S
C1201      C1202   1.441       .  A
C1202      C1203   1.516       .  S
C1203      F1207   1.383       .  S
C1203      F1208   1.370       .  S
C1203      F1209   1.382       .  S
C1206      F1210   1.380       .  S
C1206      F1211   1.385       .  S
C1206      F1212   1.377       .  S
C1213      C1214   1.408       .  A
C1213      C1218   1.418       .  A
C1213      H1220   1.077       .  S
C1214      C1215   1.416       .  A
C1215      C1216   1.404       .  A
C1215      C1222   1.518       .  S
C1216      C1217   1.409       .  A
C1216      H1221   1.070       .  S
C1217      C1218   1.425       .  A
C1218      C1219   1.514       .  S
C1219      F1223   1.382       .  S
C1219      F1224   1.385       .  S
C1219      F1225   1.375       .  S
C1222      F1226   1.380       .  S
C1222      F1227   1.377       .  S
C1222      F1228   1.385       .  S
C1229      C1230   1.405       .  A
C1229      C1234   1.410       .  A
C1229      H1236   1.081       .  S
C1230      C1231   1.424       .  A
C1231      C1232   1.416       .  A
C1231      C1238   1.512       .  S
C1232      C1233   1.403       .  A
C1232      H1237   1.081       .  S
C1233      C1234   1.420       .  A
C1234      C1235   1.518       .  S
C1235      F1239   1.385       .  S
C1235      F1240   1.383       .  S
C1235      F1241   1.376       .  S
C1238      F1242   1.385       .  S
C1238      F1243   1.378       .  S
C1238      F1244   1.376       .  S
C1245      C1246   1.414       .  A
C1245      C1250   1.407       .  A
C1245      H1252   1.080       .  S
C1246      C1247   1.424       .  A
C1247      C1248   1.405       .  A
C1247      C1254   1.524       .  S
C1248      C1249   1.406       .  A
C1248      H1253   1.085       .  S
C1249      C1250   1.408       .  A
C1250      C1251   1.515       .  S
C1251      F1255   1.384       .  S
C1251      F1256   1.382       .  S
C1251      F1257   1.380       .  S
C1254      F1258   1.377       .  S
C1254      F1259   1.382       .  S
C1254      F1260   1.385       .  S
C1261      C1262   1.409       .  A
C1261      C1266   1.419       .  A
C1261      H1268   1.081       .  S
C1262      C1263   1.429   1_565  A
C1263      C1264   1.415       .  A
C1263      C1270   1.518       .  S
C1264      C1265   1.403   1_545  A
C1264      H1269   1.084       .  S
C1265      C1266   1.419       .  A
C1266      C1267   1.516       .  S
C1267      F1271   1.385       .  S
C1267      F1272   1.383       .  S
C1267      F1273   1.380       .  S
C1270      F1274   1.385       .  S
C1270      F1275   1.380       .  S
C1270      F1276   1.379       .  S
C1277      C1278   1.397       .  A
C1277      C1282   1.386       .  A
C1277      H1284   1.082       .  S
C1278      C1279   1.427       .  A
C1279      C1280   1.413       .  A
C1279      C1286   1.515       .  S
C1280      C1281   1.404       .  A
C1280      H1285   1.084       .  S
C1281      C1282   1.417       .  A
C1282      C1283   1.523       .  S
C1283      F1287   1.381       .  S
C1283      F1288   1.381       .  S
C1283      F1289   1.384       .  S
C1286      F1290   1.383       .  S
C1286      F1291   1.379       .  S
C1286      F1292   1.383       .  S
C1293      C1294   1.398       .  A
C1293      C1298   1.416       .  A
C1293      H1300   1.083       .  S
C1294      C1295   1.422       .  A
C1295      C1296   1.394       .  A
C1295      C1302   1.521       .  S
C1296      C1297   1.393       .  A
C1296      H1301   1.078       .  S
C1297      C1298   1.432       .  A
C1298      C1299   1.506       .  S
C1299      F1303   1.386       .  S
C1299      F1304   1.377       .  S
C1299      F1305   1.378       .  S
C1302      F1306   1.384       .  S
C1302      F1307   1.380       .  S
C1302      F1308   1.384       .  S
C1309      C1310   1.409       .  A
C1309      C1314   1.418       .  A
C1309      H1316   1.082       .  S
C1310      C1311   1.423   1_554  A
C1311      C1312   1.413       .  A
C1311      C1318   1.515       .  S
C1312      C1313   1.403       .  A
C1312      H1317   1.079       .  S
C1313      C1314   1.420   1_556  A
C1314      C1315   1.512       .  S
C1315      F1319   1.384       .  S
C1315      F1320   1.380       .  S
C1315      F1321   1.382       .  S
C1318      F1322   1.382       .  S
C1318      F1323   1.376       .  S
C1318      F1324   1.382       .  S
C1325      C1326   1.397       .  A
C1325      C1330   1.408       .  A
C1325      H1332   1.085       .  S
C1326      C1327   1.408       .  A
C1327      C1328   1.416       .  A
C1327      C1334   1.514       .  S
C1328      C1329   1.418       .  A
C1328      H1333   1.073       .  S
C1329      C1330   1.442       .  A
C1330      C1331   1.523       .  S
C1331      F1335   1.386       .  S
C1331      F1336   1.373       .  S
C1331      F1337   1.376       .  S
C1334      F1338   1.380       .  S
C1334      F1339   1.382       .  S
C1334      F1340   1.378       .  S
C1341      C1342   1.407       .  A
C1341      C1346   1.403       .  A
C1341      H1348   1.083       .  S
C1342      C1343   1.409       .  A
C1343      C1344   1.407       .  A
C1343      C1350   1.521       .  S
C1344      C1345   1.408       .  A
C1344      H1349   1.071       .  S
C1345      C1346   1.413       .  A
C1346      C1347   1.513       .  S
C1347      F1351   1.384       .  S
C1347      F1352   1.376       .  S
C1347      F1353   1.381       .  S
C1350      F1354   1.383       .  S
C1350      F1355   1.384       .  S
C1350      F1356   1.376       .  S
C1357      C1358   1.395       .  A
C1357      C1362   1.399       .  A
C1357      H1364   1.083       .  S
C1358      C1359   1.416       .  A
C1359      C1360   1.409       .  A
C1359      C1366   1.514       .  S
C1360      C1361   1.405       .  A
C1360      H1365   1.083       .  S
C1361      C1362   1.424       .  A
C1362      C1363   1.513       .  S
C1363      F1367   1.385       .  S
C1363      F1368   1.376       .  S
C1363      F1369   1.378       .  S
C1366      F1370   1.381       .  S
C1366      F1371   1.382       .  S
C1366      F1372   1.385       .  S
C1373      C1374   1.411       .  A
C1373      C1378   1.411       .  A
C1373      H1380   1.079       .  S
C1374      C1375   1.419       .  A
C1375      C1376   1.413       .  A
C1375      C1382   1.513       .  S
C1376      C1377   1.407       .  A
C1376      H1381   1.083       .  S
C1377      C1378   1.420       .  A
C1378      C1379   1.520       .  S
C1379      F1383   1.385       .  S
C1379      F1384   1.382       .  S
C1379      F1385   1.383       .  S
C1382      F1386   1.382       .  S
C1382      F1387   1.379       .  S
C1382      F1388   1.382       .  S
C1389      C1390   1.409       .  A
C1389      C1394   1.401       .  A
C1389      H1396   1.082       .  S
C1390      C1391   1.431       .  A
C1391      C1392   1.414       .  A
C1391      C1398   1.514       .  S
C1392      C1393   1.400       .  A
C1392      H1397   1.076       .  S
C1393      C1394   1.415       .  A
C1394      C1395   1.518       .  S
C1395      F1399   1.383       .  S
C1395      F1400   1.383       .  S
C1395      F1401   1.383       .  S
C1398      F1402   1.376       .  S
C1398      F1403   1.378       .  S
C1398      F1404   1.383       .  S
C1405      C1406   1.400       .  A
C1405      C1410   1.409       .  A
C1405      H1412   1.068       .  S
C1406      C1407   1.418       .  A
C1407      C1408   1.397       .  A
C1407      C1414   1.514       .  S
C1408      C1409   1.403       .  A
C1408      H1413   1.082       .  S
C1409      C1410   1.422       .  A
C1410      C1411   1.513       .  S
C1411      F1415   1.383       .  S
C1411      F1416   1.376       .  S
C1411      F1417   1.381       .  S
C1414      F1418   1.385       .  S
C1414      F1419   1.383       .  S
C1414      F1420   1.383       .  S
C1421      C1422   1.394       .  A
C1421      C1426   1.405       .  A
C1421      H1428   1.085       .  S
C1422      C1423   1.419       .  A
C1423      C1424   1.415       .  A
C1423      C1430   1.516       .  S
C1424      C1425   1.409       .  A
C1424      H1429   1.085       .  S
C1425      C1426   1.425       .  A
C1426      C1427   1.514       .  S
C1427      F1431   1.381       .  S
C1427      F1432   1.377       .  S
C1427      F1433   1.384       .  S
C1430      F1434   1.384       .  S
C1430      F1435   1.381       .  S
C1430      F1436   1.383       .  S
C1437      C1438   1.390       .  A
C1437      C1442   1.402       .  A
C1437      H1444   1.082       .  S
C1438      C1439   1.412       .  A
C1439      C1440   1.398       .  A
C1439      C1446   1.515       .  S
C1440      C1441   1.406       .  A
C1440      H1445   1.077       .  S
C1441      C1442   1.433       .  A
C1442      C1443   1.509       .  S
C1443      F1447   1.385       .  S
C1443      F1448   1.359       .  S
C1443      F1449   1.384       .  S
C1446      F1450   1.378       .  S
C1446      F1451   1.382       .  S
C1446      F1452   1.384       .  S
C1453      C1454   1.400       .  A
C1453      C1458   1.390       .  A
C1453      H1460   1.084       .  S
C1454      C1455   1.416       .  A
C1455      C1456   1.403       .  A
C1455      C1462   1.513       .  S
C1456      C1457   1.400       .  A
C1456      H1461   1.085       .  S
C1457      C1458   1.418       .  A
C1458      C1459   1.526       .  S
C1459      F1463   1.383       .  S
C1459      F1464   1.379       .  S
C1459      F1465   1.384       .  S
C1462      F1466   1.383       .  S
C1462      F1467   1.378       .  S
C1462      F1468   1.384       .  S
C1469      C1470   1.405       .  A
C1469      C1474   1.413       .  A
C1469      H1476   1.080       .  S
C1470      C1471   1.424       .  A
C1471      C1472   1.411       .  A
C1471      C1478   1.512       .  S
C1472      C1473   1.402       .  A
C1472      H1477   1.077       .  S
C1473      C1474   1.418       .  A
C1474      C1475   1.517       .  S
C1475      F1479   1.385       .  S
C1475      F1480   1.383       .  S
C1475      F1481   1.381       .  S
C1478      F1482   1.383       .  S
C1478      F1483   1.370       .  S
C1478      F1484   1.382       .  S
