geometry optimzed in LAMMPS
_audit_creation_date              2020-11-30 
_audit_creation_method            'lammps2cif' 
_symmetry_space_group_name_H-M    'P1' 
_symmetry_Int_Tables_number       1 
_symmetry_cell_setting            triclinic 
loop_ 
_symmetry_equiv_pos_as_xyz 
  x,y,z 
_cell_length_a                    36.831334732074126 
_cell_length_b                    36.371753229616125 
_cell_length_c                    36.53048820636748 
_cell_angle_alpha                 89.85995384900829 
_cell_angle_beta                  89.90504036482699 
_cell_angle_gamma                 90.40099821305525 
loop_ 
_atom_site_label 
_atom_site_type_symbol 
_atom_site_fract_x 
_atom_site_fract_y 
_atom_site_fract_z 
_atom_site_charge 
Fe1        Fe  0.41845550  0.94902446  0.86865073     1.65780
Fe2        Fe  0.36770741  0.90208228  0.81119503     1.73250
Fe3        Fe  0.43849256  0.95415511  0.77859088     1.54410
O4          O  0.43192705  0.00875309  0.79409873    -0.81870
O5          O  0.39411976  0.87543317  0.76734656    -0.80170
O6          O  0.43709123  0.00127398  0.85436399    -0.84370
O7          O  0.46718914  0.92611262  0.86108045    -0.79230
O8          O  0.39361486  0.95731309  0.74325882    -0.81000
O9          O  0.38825587  0.86208899  0.84572876    -0.83750
C10         C  0.49254183  0.93822038  0.84117559     0.97020
C11         C  0.43781327  0.02152720  0.82594418     1.04460
O12         O  0.40795728  0.93548331  0.81906069    -1.12730
O13         O  0.33575446  0.92455094  0.85397164    -0.75160
O14         O  0.36806600  0.97094254  0.87698380    -0.78650
O15         O  0.48684032  0.95223095  0.80967705    -0.79340
C16         C  0.33853111  0.95312653  0.87418815     0.95920
O17         O  0.40316649  0.89885120  0.89173045    -0.77290
O18         O  0.34568806  0.94020692  0.77713127    -0.82490
C19         C  0.42564745  0.87611419  0.75258158     0.98550
C20         C  0.35956502  0.95186704  0.74756708     1.04460
O21         O  0.44842077  0.90171601  0.75909395    -0.78130
C22         C  0.39775594  0.86695441  0.87871106     1.02760
Fe23       Fe  0.44257279  0.82072242  0.07661621     1.65780
Fe24       Fe  0.38485661  0.76937548  0.12755448     1.73250
Fe25       Fe  0.44309813  0.72774020  0.06674471     1.54420
O26         O  0.43395619  0.75001678  0.01417929    -0.81870
O27         O  0.41146915  0.72901865  0.15529636    -0.80170
O28         O  0.42821991  0.81079576  0.02291860    -0.84370
O29         O  0.49474394  0.80496858  0.06671812    -0.79230
O30         O  0.39333579  0.70294500  0.06209655    -0.81000
O31         O  0.41065284  0.80794320  0.16132925    -0.83750
C32         C  0.51226541  0.77557544  0.06344442     0.97020
C33         C  0.42633074  0.78232934  0.00271112     1.04460
O34         O  0.42372491  0.77224915  0.09044331    -1.12730
O35         O  0.35279096  0.80854136  0.10309801    -0.75160
O36         O  0.39432767  0.84747547  0.08306198    -0.78650
O37         O  0.49738977  0.74423117  0.06643730    -0.79340
C38         C  0.36165723  0.83911059  0.08913996     0.95920
O39         O  0.45718386  0.83198034  0.12981734    -0.77290
O40         O  0.35460890  0.73046622  0.09949946    -0.82490
C41         C  0.43552525  0.70513303  0.14883156     0.98550
C42         C  0.36219468  0.70596467  0.07611023     1.04460
O43         O  0.45117350  0.70196863  0.11764105    -0.78130
C44         C  0.43944119  0.82754940  0.15940847     1.02760
Fe45       Fe  0.30264491  0.03451537  0.06451531     1.65780
Fe46       Fe  0.24784624  0.08416368  0.11674257     1.73250
Fe47       Fe  0.21271164  0.02101120  0.05568473     1.54420
O48         O  0.23165975  0.02580217  0.00210166    -0.81870
O49         O  0.20685537  0.05459683  0.14421331    -0.80170
O50         O  0.28950310  0.01517743  0.01283358    -0.84370
O51         O  0.29367724  0.98367256  0.08536444    -0.79230
O52         O  0.18472581  0.06989634  0.04780309    -0.81000
O53         O  0.28523605  0.06167491  0.15299018    -0.83750
C54         C  0.26967873  0.96083696  0.07476124     0.97020
C55         C  0.26246890  0.01500869  0.99150410     1.04460
O56         O  0.25376358  0.04671351  0.07897140    -1.12730
O57         O  0.28764357  0.11853318  0.09137153    -0.75160
O58         O  0.31009052  0.08627332  0.04436891    -0.78650
O59         O  0.23896724  0.97007308  0.06131265    -0.79340
C60         C  0.30570792  0.11644391  0.06131231     0.95920
O61         O  0.32805393  0.04966687  0.11278125    -0.77290
O62         O  0.21007265  0.11039798  0.08598703    -0.82490
C63         C  0.18553516  0.02812606  0.13574075     0.98550
C64         C  0.18761144  0.10218868  0.06111731     1.04460
O65         O  0.18659221  0.01211492  0.10496641    -0.78130
C66         C  0.31813241  0.05557104  0.14535995     1.02760
Fe67       Fe  0.51972282  0.00999325  0.19479672     1.65780
Fe68       Fe  0.57663024  0.05657542  0.24872903     1.73250
Fe69       Fe  0.50521170  0.00907660  0.28638335     1.54410
O70         O  0.45431795  0.01740103  0.25970630    -0.81870
O71         O  0.59957489  0.01911920  0.28260653    -0.80170
O72         O  0.46911895  0.03081157  0.20189325    -0.84370
O73         O  0.50219410  0.95809568  0.21099498    -0.79230
O74         O  0.50073770  0.06178056  0.30589248    -0.81000
O75         O  0.60573721  0.03267809  0.20559119    -0.83750
C76         C  0.49965132  0.93953342  0.24040465     0.97020
C77         C  0.44607289  0.02929417  0.22770930     1.04460
O78         O  0.53364066  0.02511344  0.24352932    -1.12730
O79         O  0.55623727  0.09690725  0.21462955    -0.75160
O80         O  0.53488282  0.05988075  0.17124628    -0.78650
O81         O  0.50549110  0.95360771  0.27169077    -0.79340
C82         C  0.54496233  0.09148822  0.18235089     0.95920
O83         O  0.56974999  0.98847867  0.18490521    -0.77290
O84         O  0.55544735  0.08425644  0.29337146    -0.82490
C85         C  0.58742645  0.00714362  0.31284012     0.98550
C86         C  0.52537645  0.08580784  0.31027560     1.04460
O87         O  0.55324850  0.00208888  0.31817730    -0.78130
C88         C  0.60077970  0.00336211  0.18726237     1.02760
Fe89       Fe  0.49327638  0.14431384  0.98219600     1.65780
Fe90       Fe  0.54564991  0.20063131  0.93115466     1.73250
Fe91       Fe  0.49491159  0.23620347  0.00191309     1.54420
O92         O  0.44146374  0.22000502  0.00764026    -0.81870
O93         O  0.58002791  0.23664620  0.96011590    -0.80170
O94         O  0.44282309  0.15973229  0.99987689    -0.84370
O95         O  0.51336952  0.14822268  0.03336397    -0.79230
O96         O  0.48024344  0.26787279  0.95562917    -0.81000
O97         O  0.58001693  0.15868090  0.94586752    -0.83750
C98         C  0.51869520  0.17410035  0.05591504     0.97020
C99         C  0.42639755  0.18879017  0.00845469     1.04460
O100        O  0.51108486  0.19403699  0.97170351    -1.12730
O101        O  0.51477320  0.16545691  0.89603306    -0.75160
O102        O  0.47262778  0.13844845  0.93114406    -0.78650
O103        O  0.51036443  0.20769100  0.04962973    -0.79340
C104        C  0.48619911  0.14536054  0.89999507     0.95920
O105        O  0.54036148  0.11794938  0.96687797    -0.77290
O106        O  0.51631036  0.24366086  0.91309587    -0.82490
C107        C  0.57442670  0.25935160  0.98600458     0.98550
C108        C  0.49311912  0.26723442  0.92308960     1.04460
O109        O  0.54463130  0.26079061  0.00281359    -0.78130
C110        C  0.57187614  0.12640928  0.95575957     1.02760
Fe111      Fe  0.63685930  0.92708121  0.01157609     1.65780
Fe112      Fe  0.68558630  0.88151895  0.95238382     1.73250
Fe113      Fe  0.72584488  0.94967836  0.00296383     1.54420
O114        O  0.69491882  0.99837493  0.99285835    -0.81870
O115        O  0.72687716  0.85774671  0.97894298    -0.80170
O116        O  0.63734643  0.97784451  0.98886194    -0.84370
O117        O  0.65532930  0.94844254  0.05912781    -0.79230
O118        O  0.74587692  0.95523640  0.95080560    -0.81000
O119        O  0.64955867  0.84688951  0.98223256    -0.83750
C120        C  0.68509936  0.95295043  0.07536481     0.97020
C121        C  0.66125695  0.00285159  0.98426558     1.04460
O122        O  0.68382743  0.91938443  0.98948721    -1.12730
O123        O  0.64523327  0.90561186  0.92199105    -0.75160
O124        O  0.60740858  0.90717339  0.96783458    -0.78650
O125        O  0.71519615  0.94998710  0.05904853    -0.79340
C126        C  0.61369222  0.91094534  0.93416242     0.95920
O127        O  0.63722826  0.87563306  0.03437825    -0.77290
O128        O  0.72230550  0.90892771  0.91940866    -0.82490
C129        C  0.75290981  0.86776893  0.99915081     0.98550
C130        C  0.74421263  0.93585520  0.92232517     1.04460
O131        O  0.75710020  0.90113436  0.01047370    -0.78130
C132        C  0.63693850  0.84677863  0.01502263     1.02760
Fe133      Fe  0.79993982  0.42912106  0.01895672     1.65780
Fe134      Fe  0.75128912  0.37947405  0.95778935     1.73250
Fe135      Fe  0.71095335  0.44410783  0.01098234     1.54410
O136        O  0.73023764  0.46074978  0.06243475    -0.81870
O137        O  0.71948911  0.41295438  0.92342288    -0.80170
O138        O  0.77952992  0.42847606  0.07157778    -0.84370
O139        O  0.78776836  0.48369746  0.01409418    -0.79230
O140        O  0.68807407  0.39467366  0.03001098    -0.81000
O141        O  0.79625799  0.39800633  0.92884495    -0.83750
C142        C  0.76640971  0.50216013  0.99383088     0.97020
C143        C  0.75673103  0.45184455  0.08256776     1.04460
O144        O  0.75419007  0.41669839  0.99613125    -1.12730
O145        O  0.78303126  0.34148948  0.98747220    -0.75160
O146        O  0.81525998  0.37571013  0.02633147    -0.78650
O147        O  0.73383347  0.49173740  0.98783425    -0.79340
C148        C  0.80638772  0.34476926  0.01313299     0.95920
O149        O  0.82640156  0.43181401  0.96905186    -0.77290
O150        O  0.70607245  0.35814312  0.98342621    -0.82490
C151        C  0.69039737  0.42997358  0.93133001     0.98550
C152        C  0.68639824  0.36461322  0.01142059     1.04460
O153        O  0.68229758  0.43606314  0.96407139    -0.78130
C154        C  0.82292014  0.41855630  0.93701954     1.02760
Fe155      Fe  0.02227203  0.45191087  0.87159889     1.65780
Fe156      Fe  0.07448539  0.40623122  0.81560180     1.73250
Fe157      Fe  0.00366737  0.45517690  0.78172718     1.54420
O158        O  0.95453668  0.45599664  0.81309223    -0.81870
O159        O  0.09675044  0.44528590  0.78275680    -0.80170
O160        O  0.97338757  0.42854584  0.86325638    -0.84370
O161        O  0.00437706  0.50348150  0.85522336    -0.79230
O162        O  0.99335585  0.40166390  0.76559500    -0.81000
O163        O  0.10570445  0.42897956  0.85823351    -0.83750
C164        C  0.00326159  0.52291831  0.82624898     0.97020
C165        C  0.94848242  0.44286917  0.84504182     1.04460
O166        O  0.03381091  0.43835254  0.82270371    -1.12730
O167        O  0.05235464  0.36579614  0.84878291    -0.75160
O168        O  0.03661017  0.40171207  0.89505842    -0.78650
O169        O  0.01110131  0.51008109  0.79490499    -0.79340
C170        C  0.04034962  0.36999752  0.88101343     0.95920
O171        O  0.07247610  0.47458601  0.88008234    -0.77290
O172        O  0.04946516  0.38018915  0.77130908    -0.82490
C173        C  0.08367824  0.45307044  0.75183745     0.98550
C174        C  0.01763786  0.37840415  0.75750148     1.04460
O175        O  0.04943928  0.45600357  0.74633494    -0.78130
C176        C  0.10279226  0.45869820  0.87641983     1.02760
Fe177      Fe  0.13237926  0.53328479  0.05732815     1.65780
Fe178      Fe  0.18243955  0.58652639  0.10901709     1.73250
Fe179      Fe  0.22093810  0.51848434  0.05798070     1.54420
O180        O  0.19133325  0.46766070  0.05663945    -0.81870
O181        O  0.21595487  0.61302765  0.07326355    -0.80170
O182        O  0.13645943  0.48221106  0.07800124    -0.84370
O183        O  0.15038049  0.51652988  0.00662956    -0.79230
O184        O  0.23707325  0.50801605  0.11065090    -0.81000
O185        O  0.13725576  0.61561023  0.08617964    -0.83750
C186        C  0.17961590  0.51889629  0.98847748     0.97020
C187        C  0.15887929  0.45887092  0.06647972     1.04460
O188        O  0.17907863  0.54538211  0.07541221    -1.12730
O189        O  0.14896627  0.56057158  0.14655366    -0.75160
O190        O  0.10612764  0.54762062  0.10599565    -0.78650
O191        O  0.20963984  0.52678680  0.00330389    -0.79340
C192        C  0.11706824  0.54981732  0.13895562     0.95920
O193        O  0.13045860  0.58393848  0.03548899    -0.77290
O194        O  0.22764313  0.56319960  0.13520753    -0.82490
C195        C  0.24600566  0.60146214  0.06116548     0.98550
C196        C  0.24396210  0.53220580  0.13461066     1.04460
O197        O  0.25255540  0.56705511  0.05722188    -0.78130
C198        C  0.12263747  0.61123553  0.05472594     1.02760
Fe199      Fe  0.99463497  0.31025942  0.06712886     1.65780
Fe200      Fe  0.04737556  0.26329061  0.12186259     1.73250
Fe201      Fe  0.99327890  0.22003740  0.05930439     1.54410
O202        O  0.93902402  0.23449390  0.06867277    -0.81870
O203        O  0.07603638  0.22160626  0.09555749    -0.80170
O204        O  0.94561710  0.29109624  0.04724653    -0.84370
O205        O  0.01825114  0.30215050  0.01817109    -0.79230
O206        O  0.99551842  0.18859537  0.10882065    -0.81000
O207        O  0.08190111  0.29823653  0.09468903    -0.83750
C208        C  0.01015504  0.27613774  0.99667719     0.97020
C209        C  0.92566133  0.26389980  0.05556156     1.04460
O210        O  0.01184523  0.26373207  0.08301816    -1.12730
O211        O  0.02098529  0.30712887  0.15052943    -0.75160
O212        O  0.97158923  0.31520680  0.11683570    -0.78650
O213        O  0.99391511  0.24660362  0.00733269    -0.79340
C214        C  0.98993474  0.32216027  0.14505222     0.95920
O215        O  0.04050351  0.33957098  0.08312926    -0.77290
O216        O  0.01743975  0.22658502  0.15167159    -0.82490
C217        C  0.07278861  0.20344485  0.06581950     0.98550
C218        C  0.00592818  0.19532021  0.14174859     1.04460
O219        O  0.04429946  0.20369232  0.04676220    -0.78130
C220        C  0.07350969  0.33020035  0.08508402     1.02760
Fe221      Fe  0.91418599  0.50359560  0.19708129     1.65780
Fe222      Fe  0.87352215  0.56307885  0.25319389     1.73250
Fe223      Fe  0.93768259  0.50326339  0.28555056     1.54420
O224        O  0.94470372  0.45064061  0.26280135    -0.81870
O225        O  0.91129189  0.59451173  0.28171996    -0.80170
O226        O  0.90351733  0.45391369  0.22057549    -0.84370
O227        O  0.96989414  0.50000382  0.20304935    -0.79230
O228        O  0.88968859  0.48836191  0.31328751    -0.81000
O229        O  0.88832683  0.59178191  0.20601531    -0.83750
C230        C  0.99363990  0.51102823  0.22578818     0.97020
C231        C  0.92856710  0.43642814  0.23575772     1.04460
O232        O  0.90887022  0.52442096  0.24512083    -1.12730
O233        O  0.83104515  0.53540649  0.22622298    -0.75160
O234        O  0.86047260  0.50350000  0.18403415    -0.78650
O235        O  0.98566210  0.51881639  0.25890856    -0.79340
C236        C  0.83138793  0.51401905  0.19875099     0.95920
O237        O  0.92256816  0.55412921  0.17248443    -0.77290
O238        O  0.85583437  0.53802500  0.30060592    -0.82490
C239        C  0.93132146  0.58498754  0.30832587     0.98550
C240        C  0.86164944  0.50850503  0.31841674     1.04460
O241        O  0.93910219  0.55166498  0.31445109    -0.78130
C242        C  0.90887182  0.58552775  0.17864993     1.02760
Fe243      Fe  0.93546753  0.64554619  0.98145656     1.65780
Fe244      Fe  0.88366364  0.69580879  0.93099595     1.73250
Fe245      Fe  0.94131764  0.73557550  0.99267765     1.54420
O246        O  0.93976159  0.70698398  0.04407473    -0.81870
O247        O  0.91803967  0.72838456  0.90272195    -0.80170
O248        O  0.91287641  0.65282285  0.03138522    -0.84370
O249        O  0.98371724  0.66244732  0.00277037    -0.79230
O250        O  0.89160728  0.75629909  0.00503733    -0.81000
O251        O  0.90713049  0.65231735  0.90038592    -0.83750
C252        C  0.00557763  0.68817079  0.99497282     0.97020
C253        C  0.92407742  0.67674304  0.05403430     1.04460
O254        O  0.91982430  0.69320187  0.96864537    -1.12730
O255        O  0.84680595  0.66110361  0.95817153    -0.75160
O256        O  0.88953355  0.62051871  0.96267678    -0.78650
O257        O  0.99446411  0.71871135  0.98276509    -0.79340
C258        C  0.85644359  0.62830485  0.96401804     0.95920
O259        O  0.95795995  0.63940980  0.93066511    -0.77290
O260        O  0.85861197  0.74076513  0.95609491    -0.82490
C261        C  0.93166093  0.75908888  0.91046539     0.98550
C262        C  0.86388963  0.75979201  0.98502730     1.04460
O263        O  0.94159001  0.76702424  0.94325695    -0.78130
C264        C  0.93874624  0.63777024  0.90179013     1.02760
Fe265      Fe  0.94448761  0.81242731  0.48790628     1.65780
Fe266      Fe  0.89268389  0.75757863  0.43375850     1.73250
Fe267      Fe  0.94752472  0.71913309  0.49924125     1.54410
O268        O  0.99996203  0.73829311  0.50680153    -0.81870
O269        O  0.85957108  0.72466006  0.46658785    -0.80170
O270        O  0.99782797  0.79825039  0.49537098    -0.84370
O271        O  0.93299580  0.80138610  0.54180209    -0.79230
O272        O  0.96273941  0.69424175  0.45035302    -0.81000
O273        O  0.86027560  0.80129989  0.44786341    -0.83750
C274        C  0.92821981  0.77284468  0.56141998     0.97020
C275        C  0.01441210  0.76988960  0.50612918     1.04460
O276        O  0.92855871  0.76313610  0.47345688    -1.12730
O277        O  0.92306599  0.79077810  0.39794576    -0.75160
O278        O  0.95679695  0.82647463  0.43470407    -0.78650
O279        O  0.93250960  0.74016962  0.54988434    -0.79340
C280        C  0.94680728  0.81600061  0.40304651     0.95920
O281        O  0.89393868  0.83621953  0.48419431    -0.77290
O282        O  0.91864390  0.71267582  0.41280166    -0.82490
C283        C  0.86668033  0.69870346  0.48889992     0.98550
C284        C  0.94528892  0.69220459  0.42032950     1.04460
O285        O  0.89871160  0.69196247  0.49877425    -0.78130
C286        C  0.86474366  0.82962411  0.46724588     1.02760
Fe287      Fe  0.80698751  0.03189283  0.50490884     1.65780
Fe288      Fe  0.75440868  0.08478152  0.45319155     1.73250
Fe289      Fe  0.71670538  0.01379395  0.50199516     1.54420
O290        O  0.74656719  0.96379587  0.50097287    -0.81870
O291        O  0.71618200  0.10786648  0.48607142    -0.80170
O292        O  0.80268594  0.98044812  0.48438189    -0.84370
O293        O  0.78720711  0.01447149  0.55506708    -0.79230
O294        O  0.70227579  0.00307426  0.44922739    -0.81000
O295        O  0.79349535  0.11814248  0.48062650    -0.83750
C296        C  0.75736263  0.01382780  0.57264177     0.97020
C297        C  0.77838099  0.95615407  0.48901779     1.04460
O298        O  0.75912772  0.04355251  0.48677772    -1.12730
O299        O  0.79250926  0.06509707  0.41739543    -0.75160
O300        O  0.83412159  0.04611418  0.45684118    -0.78650
O301        O  0.72710994  0.02036179  0.55743689    -0.79340
C302        C  0.82453579  0.05528782  0.42471075     0.95920
O303        O  0.81403269  0.08366329  0.52626551    -0.77290
O304        O  0.71479187  0.05663483  0.42198384    -0.82490
C305        C  0.68554197  0.09449142  0.49434989     0.98550
C306        C  0.69876559  0.02531345  0.42288262     1.04460
O307        O  0.68109306  0.06014401  0.50145439    -0.78130
C308        C  0.81161888  0.11462048  0.51029813     1.02760
Fe309      Fe  0.00758166  0.00840600  0.36605843     1.65780
Fe310      Fe  0.06974167  0.05234332  0.31530141     1.73250
Fe311      Fe  0.99897065  0.00669464  0.27408797     1.54410
O312        O  0.98873102  0.95346285  0.29490964    -0.81870
O313        O  0.04326493  0.09114174  0.28283222    -0.80170
O314        O  0.01000638  0.95407552  0.35202097    -0.84370
O315        O  0.95412957  0.00792490  0.35232968    -0.79230
O316        O  0.04627172  0.98841370  0.24715967    -0.81000
O317        O  0.05719767  0.08314538  0.36114010    -0.83750
C318        C  0.93715113  0.02391305  0.32714967     0.97020
C319        C  0.99635709  0.93718538  0.32493723     1.04460
O320        O  0.02569447  0.02223970  0.31794208    -1.12730
O321        O  0.09957239  0.01458692  0.34698344    -0.75160
O322        O  0.05773322  0.00493086  0.38896812    -0.78650
O323        O  0.95036346  0.02765428  0.29524975    -0.79340
C324        C  0.08972046  0.00111772  0.37770377     0.95920
O325        O  0.00416654  0.06287171  0.38267949    -0.77290
O326        O  0.08821425  0.02712447  0.26919225    -0.82490
C327        C  0.02066762  0.08716184  0.25658625     0.98550
C328        C  0.07787177  0.00335854  0.24621558     1.04460
O329        O  0.00506657  0.05693111  0.24924886    -0.78130
C330        C  0.03006610  0.08623427  0.38231201     1.02760
Fe331      Fe  0.99939030  0.14752105  0.57956861     1.65780
Fe332      Fe  0.05274956  0.19639850  0.63161927     1.73250
Fe333      Fe  0.99994669  0.23716791  0.56596623     1.54410
O334        O  0.00199214  0.20846292  0.51486230    -0.81870
O335        O  0.01753281  0.22980434  0.65817052    -0.80170
O336        O  0.01988399  0.15114590  0.52885910    -0.84370
O337        O  0.94962471  0.16428020  0.56031507    -0.79230
O338        O  0.05166040  0.25491480  0.55546415    -0.81000
O339        O  0.02877473  0.15109109  0.66096782    -0.83750
C340        C  0.93055226  0.19264119  0.56449172     0.97020
C341        C  0.01451039  0.17671449  0.50583850     1.04460
O342        O  0.01864246  0.19437100  0.59101853    -1.12730
O343        O  0.08937396  0.16203522  0.60592367    -0.75160
O344        O  0.04690930  0.12047306  0.59553581    -0.78650
O345        O  0.94485698  0.22323098  0.57354475    -0.79340
C346        C  0.08026708  0.12978743  0.59663276     0.95920
O347        O  0.97784495  0.14864795  0.63023220    -0.77290
O348        O  0.08053534  0.24121910  0.60748582    -0.82490
C349        C  0.00787032  0.26160703  0.64865476     0.98550
C350        C  0.07824882  0.25859992  0.57708130     1.04460
O351        O  0.00004476  0.26919146  0.61514185    -0.78130
C352        C  0.99656462  0.13845896  0.65685107     1.02760
Fe353      Fe  0.14309664  0.92319412  0.54988503     1.65780
Fe354      Fe  0.19243743  0.87965893  0.61201026     1.73250
Fe355      Fe  0.22885706  0.94764427  0.55626493     1.54420
O356        O  0.20831453  0.95436862  0.50221854    -0.81870
O357        O  0.22423945  0.91303620  0.64435714    -0.80170
O358        O  0.17031696  0.90855304  0.50349346    -0.84370
O359        O  0.15246564  0.97830076  0.54143919    -0.79230
O360        O  0.25696961  0.89960809  0.54213771    -0.81000
O361        O  0.14700121  0.89923865  0.63950903    -0.83750
C362        C  0.16867900  0.00237995  0.56001957     0.97020
C363        C  0.18429865  0.93501556  0.48624509     1.04460
O364        O  0.18823512  0.91691850  0.57425182    -1.12730
O365        O  0.16160881  0.83853593  0.58640808    -0.75160
O366        O  0.12444452  0.87116902  0.55237611    -0.78650
O367        O  0.20035911  0.99551943  0.57252861    -0.79340
C368        C  0.13398908  0.84119731  0.56604554     0.95920
O369        O  0.11803136  0.93487448  0.59901948    -0.77290
O370        O  0.23730559  0.85966284  0.58555362    -0.82490
C371        C  0.25130652  0.93330329  0.63682982     0.98550
C372        C  0.25841766  0.86864961  0.55920108     1.04460
O373        O  0.25638712  0.94731351  0.60547293    -0.78130
C374        C  0.12163469  0.92148981  0.63131860     1.02760
Fe375      Fe  0.91900634  0.94063965  0.68684828     1.65780
Fe376      Fe  0.86286755  0.89929411  0.74441031     1.73250
Fe377      Fe  0.93413896  0.95057587  0.77725304     1.54410
O378        O  0.98334818  0.95285720  0.74664987    -0.81870
O379        O  0.84230118  0.93688032  0.77961248    -0.80170
O380        O  0.96945152  0.92099380  0.69707465    -0.84370
O381        O  0.93379911  0.99224403  0.70308135    -0.79230
O382        O  0.94647648  0.89846241  0.79402863    -0.81000
O383        O  0.83019714  0.92534902  0.70455830    -0.83750
C384        C  0.93276331  0.01505562  0.72943338     0.97020
C385        C  0.99238846  0.93771002  0.71651770     1.04460
O386        O  0.90489148  0.93030023  0.73618880    -1.12730
O387        O  0.87920561  0.85808088  0.70961817    -0.75160
O388        O  0.90688467  0.88961158  0.66550559    -0.78650
O389        O  0.92491171  0.00487771  0.76186590    -0.79340
C390        C  0.89495007  0.85976636  0.67892322     0.95920
O391        O  0.86879744  0.96108357  0.67357364    -0.77290
O392        O  0.89235509  0.87192184  0.78504688    -0.82490
C393        C  0.85553504  0.94398199  0.81048789     0.98550
C394        C  0.92396488  0.87259050  0.79972877     1.04460
O395        O  0.88957322  0.94972111  0.81469461    -0.78130
C396        C  0.83661911  0.95170538  0.68216831     1.02760
Fe397      Fe  0.44071221  0.64404627  0.56726018     1.65780
Fe398      Fe  0.39362307  0.69707823  0.62667569     1.73250
Fe399      Fe  0.44647158  0.73756753  0.55959175     1.54410
O400        O  0.50003979  0.71921661  0.55566414    -0.81870
O401        O  0.35942960  0.73276628  0.59811084    -0.80170
O402        O  0.49265336  0.65884297  0.55130680    -0.84370
O403        O  0.42093582  0.65567319  0.51618650    -0.79230
O404        O  0.45959331  0.76582889  0.60881373    -0.81000
O405        O  0.35878799  0.65453065  0.61364256    -0.83750
C406        C  0.42076374  0.68442385  0.49630115     0.97020
C407        C  0.51235054  0.68740356  0.54912966     1.04460
O408        O  0.42708648  0.69304241  0.58469078    -1.12730
O409        O  0.42679732  0.66202354  0.65848785    -0.75160
O410        O  0.46038115  0.63074892  0.61808919    -0.78650
O411        O  0.43252081  0.71562715  0.50762730    -0.79340
C412        C  0.45217398  0.63924950  0.65083010     0.95920
O413        O  0.39214172  0.61795275  0.57947280    -0.77290
O414        O  0.42042728  0.74085422  0.64787714    -0.82490
C415        C  0.36585353  0.75764512  0.57418624     0.98550
C416        C  0.44382801  0.76514283  0.64007437     1.04460
O417        O  0.39672074  0.76215214  0.55943786    -0.78130
C418        C  0.36366333  0.62435788  0.59763224     1.02760
Fe419      Fe  0.40907014  0.52226271  0.37048006     1.65780
Fe420      Fe  0.35692375  0.56209662  0.31112966     1.73250
Fe421      Fe  0.43121348  0.51700502  0.28231037     1.54420
O422        O  0.47837018  0.51961691  0.31775410    -0.81870
O423        O  0.34147800  0.51788282  0.28178901    -0.80170
O424        O  0.45683392  0.54963824  0.36561550    -0.84370
O425        O  0.43307996  0.47278538  0.35619098    -0.79230
O426        O  0.44046024  0.56995393  0.26607713    -0.81000
O427        O  0.32640110  0.53866227  0.35437443    -0.83750
C428        C  0.43486578  0.45187047  0.32836933     0.97020
C429        C  0.48296292  0.53445982  0.34949138     1.04460
O430        O  0.39971543  0.53464927  0.32123898    -1.12730
O431        O  0.37267265  0.60576971  0.34306438    -0.75160
O432        O  0.38661638  0.57129710  0.39137314    -0.78650
O433        O  0.42429048  0.46230344  0.29697687    -0.79340
C434        C  0.37990645  0.60253399  0.37678877     0.95920
O435        O  0.36159312  0.49367340  0.37403602    -0.77290
O436        O  0.38286376  0.58902287  0.26638415    -0.82490
C437        C  0.35243432  0.51549934  0.24959286     0.98550
C438        C  0.41588541  0.59169122  0.25539949     1.04460
O439        O  0.38680758  0.51416894  0.24341787    -0.78130
C440        C  0.33107688  0.50892061  0.37236314     1.02760
Fe441      Fe  0.64252549  0.52920299  0.51570436     1.65780
Fe442      Fe  0.69022701  0.57480932  0.45125200     1.73250
Fe443      Fe  0.73080378  0.51367483  0.50790097     1.54420
O444        O  0.71051178  0.50067469  0.56084687    -0.81870
O445        O  0.72071538  0.53889730  0.41887096    -0.80170
O446        O  0.66495658  0.53866045  0.56603354    -0.84370
O447        O  0.65819656  0.47514434  0.51888420    -0.79230
O448        O  0.75265253  0.56407675  0.52484981    -0.81000
O449        O  0.64326678  0.55610608  0.42532154    -0.83750
C450        C  0.67511510  0.45668858  0.49494507     0.97020
C451        C  0.68531270  0.51474149  0.58003378     1.04460
O452        O  0.68761002  0.54019367  0.49141456    -1.12730
O453        O  0.65982591  0.61460405  0.47899721    -0.75160
O454        O  0.62455263  0.58226730  0.51704313    -0.78650
O455        O  0.70749066  0.46559549  0.48633626    -0.79340
C456        C  0.63475053  0.61244542  0.50302603     0.95920
O457        O  0.61578789  0.51996792  0.46638524    -0.77290
O458        O  0.73643830  0.59669323  0.47489267    -0.82490
C459        C  0.75063194  0.52367787  0.42694652     0.98550
C460        C  0.75416787  0.59317997  0.50473119     1.04460
O461        O  0.75972791  0.51937633  0.45999799    -0.78130
C462        C  0.61712902  0.53509491  0.43479985     1.02760
Fe463      Fe  0.49845421  0.32038683  0.47934814     1.65780
Fe464      Fe  0.54866201  0.26868146  0.42880224     1.73250
Fe465      Fe  0.49782204  0.23025621  0.49743477     1.54420
O466        O  0.49465872  0.26110756  0.54688142    -0.81870
O467        O  0.51240076  0.23399364  0.40461438    -0.80170
O468        O  0.52291895  0.31062127  0.52743239    -0.84370
O469        O  0.44834875  0.30221398  0.49845445    -0.79230
O470        O  0.55071416  0.21490959  0.50892125    -0.81000
O471        O  0.52619626  0.31283138  0.39820931    -0.83750
C472        C  0.42998093  0.27254850  0.49920542     0.97020
C473        C  0.50685605  0.29355622  0.55235223     1.04460
O474        O  0.51394509  0.27245299  0.46768227    -1.12730
O475        O  0.58661948  0.30351949  0.45360448    -0.75160
O476        O  0.54594283  0.34617023  0.46385657    -0.78650
O477        O  0.44330979  0.24197188  0.48930025    -0.79340
C478        C  0.57871020  0.33605519  0.46291673     0.95920
O479        O  0.47662162  0.32963047  0.42871614    -0.77290
O480        O  0.57439314  0.22445938  0.45382828    -0.82490
C481        C  0.50457713  0.20212236  0.41672126     0.98550
C482        C  0.57458031  0.20805175  0.48480168     1.04460
O483        O  0.49929308  0.19597695  0.45086216    -0.78130
C484        C  0.49674706  0.33124324  0.40052257     1.02760
Fe485      Fe  0.30793303  0.42532927  0.56721986     1.65780
Fe486      Fe  0.25578396  0.37105931  0.62131404     1.73250
Fe487      Fe  0.21868665  0.44058938  0.56957579     1.54410
O488        O  0.24038922  0.48845304  0.59333154    -0.81870
O489        O  0.21180796  0.35192794  0.59183457    -0.80170
O490        O  0.29722731  0.47958667  0.57475633    -0.84370
O491        O  0.29208766  0.42624379  0.51335953    -0.79230
O492        O  0.18876574  0.43246126  0.61608695    -0.81000
O493        O  0.28868626  0.33517744  0.59129871    -0.83750
C494        C  0.26853774  0.44767948  0.50051327     0.97020
C495        C  0.27332249  0.49904317  0.59030206     1.04460
O496        O  0.26072680  0.41171994  0.58598362    -1.12730
O497        O  0.29996574  0.38651300  0.65417391    -0.75160
O498        O  0.32870926  0.42707804  0.61871958    -0.78650
O499        O  0.24062508  0.45640375  0.51885436    -0.79340
C500        C  0.32579321  0.40915694  0.64829077     0.95920
O501        O  0.32447533  0.37227979  0.55854324    -0.77290
O502        O  0.22215432  0.40108011  0.65578543    -0.82490
C503        C  0.19324148  0.36098734  0.56377641     0.98550
C504        C  0.19451190  0.42012976  0.64780137     1.04460
O505        O  0.19561291  0.39257945  0.54812188    -0.78130
C506        C  0.31498449  0.34052619  0.56922362     1.02760
Fe507      Fe  0.52063531  0.46325360  0.70257063     1.65780
Fe508      Fe  0.56588481  0.40114080  0.75183785     1.73250
Fe509      Fe  0.50730802  0.46070774  0.79274900     1.54410
O510        O  0.50105286  0.51457755  0.77040669    -0.81870
O511        O  0.52971647  0.37026036  0.78334727    -0.80170
O512        O  0.53685268  0.51293001  0.72241883    -0.84370
O513        O  0.46789844  0.47365638  0.71892496    -0.79230
O514        O  0.55796015  0.47372838  0.81580721    -0.81000
O515        O  0.54624382  0.37525488  0.70457230    -0.83750
C516        C  0.44747573  0.45315078  0.73816883     0.97020
C517        C  0.51550352  0.53060335  0.74280347     1.04460
O518        O  0.53186730  0.44131492  0.74916151    -1.12730
O519        O  0.60565676  0.42893425  0.72123327    -0.75160
O520        O  0.57157537  0.45806981  0.68047988    -0.78650
O521        O  0.45719938  0.44404532  0.77033670    -0.79340
C522        C  0.60224586  0.44849855  0.69256360     0.95920
O523        O  0.50530741  0.41328590  0.68077450    -0.77290
O524        O  0.58890136  0.42353776  0.79821924    -0.82490
C525        C  0.51341833  0.37819733  0.81301145     0.98550
C526        C  0.58570854  0.45250359  0.81751157     1.04460
O527        O  0.50782766  0.41144065  0.82174588    -0.78130
C528        C  0.52190000  0.38266580  0.68097117     1.02760
C529        C  0.41857920  0.43381030  0.68178377    -0.05970
C530        C  0.41435849  0.43848570  0.71950525    -0.00050
C531        C  0.38033905  0.42919123  0.73565078    -0.08620
C532        C  0.35121134  0.41799087  0.71235930    -0.05990
C533        C  0.35636995  0.41399927  0.67427827    -0.00060
C534        C  0.39152607  0.41939533  0.65971271    -0.08530
C535        C  0.40284748  0.40991261  0.62100856     0.61850
H536        H  0.44428771  0.44038228  0.66885121     0.12550
H537        H  0.32431517  0.41327533  0.72347409     0.12560
C538        C  0.37452532  0.43239416  0.77650820     0.62090
F539        F  0.40599817  0.44170766  0.60033651    -0.23080
F540        F  0.37977144  0.38552266  0.60387650    -0.20410
F541        F  0.43588584  0.39291783  0.62267410    -0.20090
F542        F  0.38234471  0.46786404  0.78771652    -0.20140
F543        F  0.39704099  0.40810587  0.79456192    -0.20460
F544        F  0.33904200  0.42421991  0.78628724    -0.23130
C545        C  0.51159919  0.29695832  0.61990579    -0.05970
C546        C  0.50274140  0.31380927  0.58682434    -0.00050
C547        C  0.49595553  0.35223395  0.58596331    -0.08620
C548        C  0.50635397  0.37325127  0.61623075    -0.05990
C549        C  0.51474427  0.35691627  0.64992889    -0.00060
C550        C  0.51507009  0.31779125  0.65220005    -0.08530
C551        C  0.51402374  0.29807935  0.68836136     0.61850
H552        H  0.51522947  0.26743467  0.62033097     0.12550
H553        H  0.50519724  0.40294716  0.61443686     0.12560
C554        C  0.47321783  0.37049867  0.55596007     0.62090
F555        F  0.51125529  0.26030165  0.68437108    -0.23080
F556        F  0.48337026  0.30996541  0.70649359    -0.20410
F557        F  0.54499703  0.30546088  0.70837375    -0.20090
F558        F  0.43893518  0.35484390  0.55606542    -0.20140
F559        F  0.48761290  0.36660099  0.52158554    -0.20460
F560        F  0.46960836  0.40792456  0.56163122    -0.23130
C561        C  0.39480547  0.27791945  0.55560437    -0.05970
C562        C  0.39416923  0.27467344  0.51737225    -0.00050
C563        C  0.36242744  0.28427734  0.49821992    -0.08620
C564        C  0.33407591  0.30176055  0.51744255    -0.05990
C565        C  0.33683245  0.30953064  0.55511733    -0.00060
C566        C  0.36680231  0.29533297  0.57500041    -0.08530
C567        C  0.37233012  0.29963834  0.61599026     0.61850
H568        H  0.41919481  0.27000463  0.57018778     0.12550
H569        H  0.31098404  0.31236532  0.50254348     0.12560
C570        C  0.35958923  0.27732117  0.45749768     0.62090
F571        F  0.37493277  0.26515963  0.63175565    -0.23080
F572        F  0.34446831  0.31803422  0.63316181    -0.20410
F573        F  0.40441582  0.31852335  0.62245375    -0.20090
F574        F  0.36559796  0.24044926  0.45070349    -0.20140
F575        F  0.38530460  0.29808423  0.43893952    -0.20460
F576        F  0.32560067  0.28618835  0.44414870    -0.23130
C577        C  0.61700775  0.42853112  0.48389474    -0.05970
C578        C  0.65443717  0.42524548  0.47919106    -0.00050
C579        C  0.66825300  0.39153110  0.46560668    -0.08620
C580        C  0.64324764  0.36200368  0.45949817    -0.05990
C581        C  0.60670349  0.36466121  0.47120042    -0.00060
C582        C  0.59556786  0.39781536  0.48784634    -0.08530
C583        C  0.56569657  0.40072662  0.51620362     0.61850
H584        H  0.60520745  0.45451254  0.49192567     0.12550
H585        H  0.65220204  0.33675018  0.44685585     0.12560
C586        C  0.70824874  0.38701707  0.45755179     0.62090
F587        F  0.57514532  0.42549544  0.54344803    -0.23080
F588        F  0.56044034  0.36749170  0.53341119    -0.20410
F589        F  0.53420881  0.41287494  0.49996864    -0.20090
F590        F  0.72805765  0.39191535  0.48931511    -0.20140
F591        F  0.71914062  0.41281779  0.43182659    -0.20460
F592        F  0.71573750  0.35240480  0.44392524    -0.23130
C593        C  0.67582672  0.46024507  0.62074436    -0.05970
C594        C  0.67504550  0.49883311  0.61649800    -0.00050
C595        C  0.65734134  0.51998126  0.64374879    -0.08620
C596        C  0.63704185  0.50186372  0.67103772    -0.05990
C597        C  0.63409122  0.46346858  0.67243932    -0.00060
C598        C  0.65512004  0.44212641  0.64818403    -0.08530
C599        C  0.65346325  0.40052179  0.64986803     0.61850
H600        H  0.68969827  0.44411495  0.60022044     0.12550
H601        H  0.62051765  0.51787357  0.68963530     0.12560
C602        C  0.65514371  0.56142471  0.64164303     0.62090
F603        F  0.67634300  0.38459521  0.62442919    -0.23080
F604        F  0.61841515  0.38848077  0.64301899    -0.20410
F605        F  0.66380876  0.38883822  0.68434326    -0.20090
F606        F  0.62702850  0.57071517  0.61849278    -0.20140
F607        F  0.68742610  0.57630146  0.62879490    -0.20460
F608        F  0.64839011  0.57650578  0.67573315    -0.23130
C609        C  0.55113394  0.52673049  0.42811561    -0.05970
C610        C  0.58458213  0.53098326  0.41029874    -0.00050
C611        C  0.58477039  0.53390630  0.37135538    -0.08620
C612        C  0.55127445  0.53371549  0.35216172    -0.05990
C613        C  0.51778455  0.53170883  0.37054020    -0.00060
C614        C  0.51788171  0.52721175  0.40950570    -0.08530
C615        C  0.48340812  0.52313700  0.43251706     0.61850
H616        H  0.55102384  0.52484497  0.45767806     0.12550
H617        H  0.55096626  0.53648014  0.32264735     0.12560
C618        C  0.61990575  0.53639936  0.34991378     0.62090
F619        F  0.49076595  0.51305497  0.46832123    -0.23080
F620        F  0.46123743  0.49612342  0.41810872    -0.20410
F621        F  0.46509312  0.55618482  0.43373437    -0.20090
F622        F  0.64249008  0.50827408  0.36068228    -0.20140
F623        F  0.63667482  0.56992169  0.35610274    -0.20460
F624        F  0.61421131  0.53309122  0.31260483    -0.23130
C625        C  0.27287898  0.44707752  0.43207592    -0.05970
C626        C  0.27650235  0.46633484  0.46524200    -0.00050
C627        C  0.29292952  0.50175842  0.46491379    -0.08620
C628        C  0.30667278  0.51575539  0.43231317    -0.05990
C629        C  0.30448809  0.49650348  0.39968709    -0.00060
C630        C  0.28696064  0.46174585  0.39896103    -0.08530
C631        C  0.28448125  0.44014812  0.36369224     0.61850
H632        H  0.26071053  0.41988943  0.43263337     0.12550
H633        H  0.32407717  0.53965599  0.43329124     0.12560
C634        C  0.30033860  0.52343134  0.49923944     0.62090
F635        F  0.26497694  0.40777708  0.36822784    -0.23080
F636        F  0.31889717  0.43144513  0.35155087    -0.20410
F637        F  0.26735725  0.46113672  0.33734697    -0.20090
F638        F  0.32739506  0.50629378  0.51885654    -0.20140
F639        F  0.26890446  0.52553391  0.51923990    -0.20460
F640        F  0.31166229  0.55914045  0.49202967    -0.23130
C641        C  0.48894785  0.42168964  0.35060815    -0.05970
C642        C  0.45516428  0.41734198  0.33370574    -0.00050
C643        C  0.43981570  0.38181675  0.33064241    -0.08620
C644        C  0.45591574  0.35267411  0.35046094    -0.05990
C645        C  0.48720354  0.35848837  0.37187981    -0.00060
C646        C  0.50507622  0.39316867  0.37031010    -0.08530
C647        C  0.53747429  0.40248115  0.39408807     0.61850
H648        H  0.50063781  0.44909675  0.35179195     0.12550
H649        H  0.44301583  0.32583152  0.35113740     0.12560
C650        C  0.40649983  0.37528266  0.30737661     0.62090
F651        F  0.55285165  0.43618919  0.38510028    -0.23080
F652        F  0.56408522  0.37617276  0.39043478    -0.20410
F653        F  0.52588653  0.40434803  0.42987862    -0.20090
F654        F  0.41366638  0.38643761  0.27183901    -0.20140
F655        F  0.37767744  0.39518445  0.32093056    -0.20460
F656        F  0.39668624  0.33848186  0.30668634    -0.23130
C657        C  0.36957538  0.66247136  0.45909227    -0.05970
C658        C  0.40391266  0.67975476  0.45946113    -0.00050
C659        C  0.42324091  0.68204516  0.42578650    -0.08620
C660        C  0.41363052  0.65763868  0.39749641    -0.05990
C661        C  0.38240344  0.63569863  0.40001441    -0.00060
C662        C  0.35740424  0.64269341  0.42836013    -0.08530
C663        C  0.31748288  0.63365851  0.42386254     0.61850
H664        H  0.35274191  0.66381744  0.48340434     0.12550
H665        H  0.43090788  0.65532233  0.37355129     0.12560
C666        C  0.45159017  0.71079769  0.41673853     0.62090
F667        F  0.29816811  0.63987897  0.45577132    -0.23080
F668        F  0.31237465  0.59766970  0.41375761    -0.20410
F669        F  0.30345840  0.65579435  0.39658553    -0.20090
F670        F  0.48294344  0.69396126  0.40496674    -0.20140
F671        F  0.45928184  0.73356693  0.44581683    -0.20460
F672        F  0.43882595  0.73244491  0.38842676    -0.23130
C673        C  0.30003321  0.59911648  0.59303664    -0.05970
C674        C  0.33676218  0.59422695  0.60271553    -0.00050
C675        C  0.34739255  0.56066068  0.61913287    -0.08620
C676        C  0.32241323  0.53160975  0.62034432    -0.05990
C677        C  0.28770833  0.53435018  0.60476906    -0.00060
C678        C  0.27479655  0.56945822  0.59458772    -0.08530
C679        C  0.23471045  0.57585145  0.58782004     0.61850
H680        H  0.29153508  0.62590657  0.58346381     0.12550
H681        H  0.33114469  0.50497671  0.63022782     0.12560
C682        C  0.38503287  0.55514836  0.63525899     0.62090
F683        F  0.22770174  0.61248299  0.58052765    -0.23080
F684        F  0.21538496  0.56574827  0.61878261    -0.20410
F685        F  0.22225157  0.55532670  0.55868539    -0.20090
F686        F  0.39231894  0.58282135  0.66005079    -0.20140
F687        F  0.41093899  0.55564000  0.60784634    -0.20460
F688        F  0.38785851  0.52190987  0.65359375    -0.23130
C689        C  0.45466674  0.61002054  0.71324120    -0.05970
C690        C  0.47264805  0.62014077  0.68067807    -0.00050
C691        C  0.50911426  0.60859181  0.67572574    -0.08620
C692        C  0.52380480  0.58282720  0.70012271    -0.05990
C693        C  0.50358245  0.56768128  0.72922616    -0.00060
C694        C  0.46968027  0.58413044  0.73797335    -0.08530
C695        C  0.44868480  0.57384987  0.77226156     0.61850
H696        H  0.42755597  0.62035648  0.71787630     0.12550
H697        H  0.55055814  0.57198070  0.69449646     0.12560
C698        C  0.53249472  0.62155921  0.64387479     0.62090
F699        F  0.42025291  0.59774932  0.77851788    -0.23080
F700        F  0.47149594  0.57547916  0.80228563    -0.20410
F701        F  0.43441302  0.53876932  0.76896991    -0.20090
F702        F  0.52717378  0.65863100  0.63753982    -0.20140
F703        F  0.52401904  0.60171112  0.61273755    -0.20460
F704        F  0.56896577  0.61665182  0.65119820    -0.23130
C705        C  0.57782094  0.67449962  0.56160020    -0.05970
C706        C  0.55034881  0.68218957  0.53627264    -0.00050
C707        C  0.55775906  0.67716269  0.49861347    -0.08620
C708        C  0.58926171  0.65843215  0.48786158    -0.05990
C709        C  0.61376695  0.64524148  0.51374333    -0.00060
C710        C  0.60991806  0.65641412  0.55078900    -0.08530
C711        C  0.63987121  0.65210566  0.57882344     0.61850
H712        H  0.57342091  0.68088224  0.59017682     0.12550
H713        H  0.59299642  0.65065945  0.45948937     0.12560
C714        C  0.53142505  0.68995730  0.47000893     0.62090
F715        F  0.65706386  0.68569678  0.58327219    -0.23080
F716        F  0.66550574  0.62653490  0.56860040    -0.20410
F717        F  0.62547427  0.64157018  0.61215670    -0.20090
F718        F  0.52405173  0.72673403  0.47565282    -0.20140
F719        F  0.49978332  0.66947731  0.47261760    -0.20460
F720        F  0.54558612  0.68616010  0.43509360    -0.23130
C721        C  0.34890893  0.82165578  0.56001875    -0.05970
C722        C  0.33762659  0.78476212  0.56402197    -0.00050
C723        C  0.30087880  0.77540924  0.55748221    -0.08620
C724        C  0.27602580  0.80398460  0.55119639    -0.05990
C725        C  0.28681423  0.84124418  0.55101809    -0.00060
C726        C  0.32415410  0.85018782  0.55354437    -0.08530
C727        C  0.33768704  0.88970463  0.55151143     0.61850
H728        H  0.37734922  0.82828970  0.56382031     0.12550
H729        H  0.24734349  0.79759405  0.54886668     0.12560
C730        C  0.28789762  0.73570888  0.55702164     0.62090
F731        F  0.37514073  0.89201209  0.55406703    -0.23080
F732        F  0.32311115  0.91005807  0.57978374    -0.20410
F733        F  0.32755946  0.90501205  0.51841844    -0.20090
F734        F  0.28918994  0.72107312  0.59194196    -0.20140
F735        F  0.30974434  0.71529845  0.53399788    -0.20460
F736        F  0.25251708  0.73270022  0.54456336    -0.23130
C737        C  0.05775438  0.92037059  0.71499620    -0.05970
C738        C  0.02930448  0.94141942  0.70088206    -0.00050
C739        C  0.03457061  0.96085336  0.66763723    -0.08620
C740        C  0.06634405  0.95536315  0.64762995    -0.05990
C741        C  0.09334943  0.93102379  0.65920771    -0.00060
C742        C  0.09041364  0.91545361  0.69510265    -0.08530
C743        C  0.12097430  0.89397798  0.71278818     0.61850
H744        H  0.05344180  0.90625319  0.74079278     0.12550
H745        H  0.06947696  0.96933003  0.62163965     0.12560
C746        C  0.00698812  0.98794777  0.65325445     0.62090
F747        F  0.11388019  0.88655707  0.74931436    -0.23080
F748        F  0.15283939  0.91429804  0.71113828    -0.20410
F749        F  0.12563718  0.86078292  0.69517784    -0.20090
F750        F  0.00150599  0.01439029  0.67959933    -0.20140
F751        F  0.97467985  0.97032740  0.64508132    -0.20460
F752        F  0.01880472  0.00550021  0.62171451    -0.23130
C753        C  0.12944606  0.34618462  0.55092337    -0.05970
C754        C  0.16536209  0.33388392  0.55233116    -0.00050
C755        C  0.17198594  0.29562296  0.55540875    -0.08620
C756        C  0.14290094  0.27175997  0.56344910    -0.05990
C757        C  0.10732847  0.28475257  0.56636115    -0.00060
C758        C  0.10011925  0.32237262  0.55884218    -0.08530
C759        C  0.06216648  0.33809649  0.56257268     0.61850
H760        H  0.12482650  0.37542581  0.54808682     0.12550
H761        H  0.14805814  0.24273081  0.56765421     0.12560
C762        C  0.20938964  0.27907214  0.55098555     0.62090
F763        F  0.06195787  0.37590398  0.55808570    -0.23080
F764        F  0.04856007  0.33025913  0.59705300    -0.20410
F765        F  0.03953665  0.32305777  0.53636213    -0.20090
F766        F  0.22128031  0.26593138  0.58439858    -0.20140
F767        F  0.23445903  0.30421695  0.53755909    -0.20460
F768        F  0.20757887  0.25016481  0.52647990    -0.23130
C769        C  0.09565623  0.07733984  0.55819107    -0.05970
C770        C  0.10735384  0.10137950  0.58551488    -0.00050
C771        C  0.14185087  0.09553714  0.60177185    -0.08620
C772        C  0.16201269  0.06385403  0.59173665    -0.05990
C773        C  0.14886020  0.03815188  0.56595430    -0.00060
C774        C  0.11496103  0.04593070  0.54811953    -0.08530
C775        C  0.09766554  0.02166149  0.51872442     0.61850
H776        H  0.06992083  0.08305166  0.54516230     0.12550
H777        H  0.18772427  0.05836329  0.60489291     0.12560
C778        C  0.15683288  0.12192351  0.63010158     0.62090
F779        F  0.06698655  0.03724599  0.50348636    -0.23080
F780        F  0.08679742  0.98832052  0.53362407    -0.20410
F781        F  0.12216930  0.01632598  0.49058254    -0.20090
F782        F  0.13287385  0.12456294  0.65915744    -0.20140
F783        F  0.16174809  0.15625615  0.61442737    -0.20460
F784        F  0.18999245  0.11048744  0.64362461    -0.23130
C785        C  0.98330877  0.10652051  0.71744013    -0.05970
C786        C  0.98022921  0.10850016  0.67893737    -0.00050
C787        C  0.95769505  0.08270253  0.66061337    -0.08620
C788        C  0.93564614  0.06006704  0.68136965    -0.05990
C789        C  0.94200831  0.05355216  0.71846520    -0.00060
C790        C  0.96548008  0.07794275  0.73755165    -0.08530
C791        C  0.97162583  0.07362259  0.77823510     0.61850
H792        H  0.00029837  0.12647299  0.73125472     0.12550
H793        H  0.91824288  0.04180292  0.66712713     0.12560
C794        C  0.96007455  0.07446734  0.61949904     0.62090
F795        F  0.99348723  0.10144646  0.79195267    -0.23080
F796        F  0.98820576  0.04035907  0.78526195    -0.20410
F797        F  0.93861184  0.07469157  0.79630833    -0.20090
F798        F  0.99584710  0.07449718  0.60850306    -0.20140
F799        F  0.94107847  0.09979315  0.59914722    -0.20460
F800        F  0.94605552  0.04008515  0.61102898    -0.23130
C801        C  0.05509089  0.14649055  0.46291426    -0.05970
C802        C  0.02305847  0.16656823  0.46762047    -0.00050
C803        C  0.99662855  0.16614907  0.43965391    -0.08620
C804        C  0.00020930  0.14047627  0.41092326    -0.05990
C805        C  0.03020347  0.11681658  0.40903558    -0.00060
C806        C  0.05920080  0.12134332  0.43424033    -0.08530
C807        C  0.09315127  0.09778565  0.43292267     0.61850
H808        H  0.07554520  0.14814652  0.48415585     0.12550
H809        H  0.97895686  0.13768283  0.39064382     0.12560
C810        C  0.96409939  0.19118292  0.44140839     0.62090
F811        F  0.11617322  0.10467463  0.46209151    -0.23080
F812        F  0.11226044  0.10487142  0.40105993    -0.20410
F813        F  0.08355139  0.06107268  0.43421620    -0.20090
F814        F  0.97548476  0.22695195  0.44755123    -0.20140
F815        F  0.94147466  0.17997433  0.46954359    -0.20460
F816        F  0.94475966  0.19090664  0.40898916    -0.23130
C817        C  0.15300062  0.98675487  0.39971850    -0.05970
C818        C  0.11512046  0.98111600  0.40275489    -0.00050
C819        C  0.10182600  0.95731453  0.43120091    -0.08620
C820        C  0.12656926  0.94138105  0.45501312    -0.05990
C821        C  0.16383708  0.94890056  0.45389348    -0.00060
C822        C  0.17769619  0.97141133  0.42531464    -0.08530
C823        C  0.21806205  0.97872903  0.42158419     0.61850
H824        H  0.16304317  0.00452983  0.37809705     0.12550
H825        H  0.11608228  0.92449445  0.47703345     0.12560
C826        C  0.06178272  0.94826210  0.43818538     0.62090
F827        F  0.22630226  0.99662409  0.38909351    -0.23080
F828        F  0.23658985  0.94577331  0.42211204    -0.20410
F829        F  0.22993458  0.00052595  0.45015753    -0.20090
F830        F  0.04647832  0.93468017  0.40672537    -0.20140
F831        F  0.04348424  0.97916504  0.44992480    -0.20460
F832        F  0.05665841  0.92157181  0.46487153    -0.23130
C833        C  0.63608719  0.13115786  0.52434442    -0.05970
C834        C  0.65452471  0.12057756  0.49241402    -0.00050
C835        C  0.64640480  0.13883334  0.45895449    -0.08620
C836        C  0.62110456  0.16726647  0.45890279    -0.05990
C837        C  0.60246550  0.17844016  0.49046276    -0.00060
C838        C  0.60988836  0.15972575  0.52405597    -0.08530
C839        C  0.59102015  0.16984672  0.55953944     0.61850
H840        H  0.64294568  0.11732135  0.54965131     0.12550
H841        H  0.61511703  0.18059063  0.43316768     0.12560
C842        C  0.66250599  0.12726386  0.42239938     0.62090
F843        F  0.60451456  0.15031794  0.58905532    -0.23080
F844        F  0.55431327  0.16206163  0.55691930    -0.20410
F845        F  0.59608334  0.20687836  0.56660363    -0.20090
F846        F  0.65280061  0.09126239  0.41592814    -0.20140
F847        F  0.69982975  0.13109532  0.42247562    -0.20460
F848        F  0.64964796  0.14793074  0.39333969    -0.23130
C849        C  0.90968714  0.06790324  0.36695486    -0.05970
C850        C  0.90356828  0.04205109  0.33921281    -0.00050
C851        C  0.86879951  0.02564784  0.33618298    -0.08620
C852        C  0.84292749  0.03247003  0.36378705    -0.05990
C853        C  0.85140361  0.05392649  0.39469849    -0.00060
C854        C  0.88528766  0.07269917  0.39594124    -0.08530
C855        C  0.89845292  0.09745075  0.42669986     0.61850
H856        H  0.93615557  0.08107966  0.36861251     0.12550
H857        H  0.81655611  0.01910829  0.36221863     0.12560
C858        C  0.85791544  0.00055416  0.30507522     0.62090
F859        F  0.93076419  0.08399344  0.44042548    -0.23080
F860        F  0.87462595  0.10071885  0.45550067    -0.20410
F861        F  0.90460149  0.13212615  0.41257845    -0.20090
F862        F  0.84963499  0.96601555  0.31875224    -0.20140
F863        F  0.88486653  0.99736736  0.27894060    -0.20460
F864        F  0.82740666  0.01456800  0.28815059    -0.23130
C865        C  0.84206624  0.14303191  0.56427071    -0.05970
C866        C  0.83286705  0.14604794  0.52692865    -0.00050
C867        C  0.84821455  0.17598503  0.50678444    -0.08620
C868        C  0.87797377  0.19560041  0.52215939    -0.05990
C869        C  0.89096358  0.18784508  0.55750137    -0.00060
C870        C  0.86998309  0.16421682  0.58010125    -0.08420
C871        C  0.87601684  0.16049429  0.62099473     0.61850
H872        H  0.82828917  0.12271228  0.58117085     0.12550
H873        H  0.89297530  0.21526715  0.50565587     0.12560
C874        C  0.83367135  0.18748666  0.46965765     0.62090
F875        F  0.84473179  0.17087623  0.63910121    -0.23080
F876        F  0.90421238  0.18242410  0.63340987    -0.20410
F877        F  0.88317462  0.12433514  0.62988655    -0.20090
F878        F  0.79688514  0.19430230  0.47254273    -0.20140
F879        F  0.83918652  0.16036518  0.44398200    -0.20460
F880        F  0.85042918  0.21928272  0.45704265    -0.23130
C881        C  0.77515101  0.95359091  0.65186742    -0.05970
C882        C  0.80614294  0.97254344  0.66465897    -0.00050
C883        C  0.80896220  0.01091665  0.65676868    -0.08620
C884        C  0.78612541  0.02632951  0.63042132    -0.05990
C885        C  0.76029615  0.00532393  0.61215514    -0.00060
C886        C  0.75130113  0.97017549  0.62628939    -0.08530
C887        C  0.71623513  0.95138760  0.61515743     0.61850
H888        H  0.77090567  0.92528137  0.66014457     0.12550
H889        H  0.79203424  0.05376750  0.62010890     0.12560
C890        C  0.83989916  0.03524961  0.66867685     0.62090
F891        F  0.71282036  0.91686583  0.63087266    -0.23080
F892        F  0.71428019  0.94767766  0.57766746    -0.20410
F893        F  0.68737499  0.97258749  0.62663953    -0.20090
F894        F  0.86473503  0.03542312  0.64035356    -0.20140
F895        F  0.85550442  0.02358275  0.70101025    -0.20460
F896        F  0.82811109  0.07088755  0.67418199    -0.23130
C897        C  0.80113020  0.68372001  0.49290323    -0.05970
C898        C  0.83667707  0.67458064  0.50287636    -0.00050
C899        C  0.84191294  0.64259660  0.52522940    -0.08620
C900        C  0.81320262  0.61687167  0.52828529    -0.05990
C901        C  0.77902529  0.62418320  0.51349230    -0.00060
C902        C  0.77190559  0.66012075  0.50021589    -0.08530
C903        C  0.73391797  0.67391336  0.49273346     0.61850
H904        H  0.79593741  0.70951399  0.47902103     0.12550
H905        H  0.81791877  0.59015475  0.54046595     0.12560
C906        C  0.87660730  0.63528025  0.54650772     0.62090
F907        F  0.73172889  0.71118727  0.49997559    -0.23080
F908        F  0.70908516  0.65629740  0.51516166    -0.20410
F909        F  0.72497471  0.66807776  0.45645417    -0.20090
F910        F  0.88647204  0.66632685  0.56600406    -0.20140
F911        F  0.90441097  0.62555793  0.52319909    -0.20460
F912        F  0.87198880  0.60692875  0.57150086    -0.23130
C913        C  0.94337550  0.78803736  0.62470875    -0.05970
C914        C  0.91643414  0.77948851  0.59912048    -0.00050
C915        C  0.87996558  0.78910509  0.60615932    -0.08620
C916        C  0.87258999  0.81308210  0.63535047    -0.05990
C917        C  0.90071362  0.82603593  0.65773300    -0.00060
C918        C  0.93573914  0.81058355  0.65481412    -0.08530
C919        C  0.96610820  0.82124330  0.68064554     0.61850
H920        H  0.97113233  0.78007741  0.61911660     0.12550
H921        H  0.84555621  0.82401985  0.63906197     0.12560
C922        C  0.84960822  0.77515964  0.58175672     0.62090
F923        F  0.99326728  0.79512307  0.68057952    -0.23080
F924        F  0.95321819  0.82413744  0.71611523    -0.20410
F925        F  0.98075772  0.85454159  0.66976832    -0.20090
F926        F  0.84968319  0.73713962  0.58179063    -0.20140
F927        F  0.85458809  0.78752514  0.54631605    -0.20460
F928        F  0.81593301  0.78675478  0.59380334    -0.23130
C929        C  0.81383023  0.85929927  0.50013309    -0.05970
C930        C  0.83572590  0.85732293  0.46879835    -0.00050
C931        C  0.83251963  0.88431569  0.44113731    -0.08620
C932        C  0.80908250  0.91403759  0.44698632    -0.05990
C933        C  0.78977976  0.91814138  0.47997556    -0.00060
C934        C  0.79078731  0.88946744  0.50628250    -0.08530
C935        C  0.76932401  0.89171128  0.54145449     0.61850
H936        H  0.81633839  0.83802559  0.52065680     0.12550
H937        H  0.80799562  0.93609155  0.42702389     0.12560
C938        C  0.85567249  0.88290487  0.40672855     0.62090
F939        F  0.77380316  0.86084475  0.56320264    -0.23080
F940        F  0.73285330  0.89458470  0.53314567    -0.20410
F941        F  0.78063869  0.92205815  0.56118632    -0.20090
F942        F  0.84889229  0.85045571  0.38824570    -0.20140
F943        F  0.89202408  0.88464935  0.41604640    -0.20460
F944        F  0.84844907  0.91183663  0.38320888    -0.23130
C945        C  0.01165205  0.87707914  0.35204744    -0.05970
C946        C  0.98714745  0.89771086  0.33112650    -0.00050
C947        C  0.95164432  0.88336308  0.32533528    -0.08620
C948        C  0.94012978  0.85244468  0.34593168    -0.05990
C949        C  0.96323792  0.83578844  0.37147421    -0.00060
C950        C  0.00045166  0.84582988  0.37171599    -0.08530
C951        C  0.02852676  0.82580642  0.39440216     0.61850
H952        H  0.03934743  0.88689157  0.35503140     0.12550
H953        H  0.91199195  0.84367297  0.34509687     0.12560
C954        C  0.92513261  0.90237015  0.30009996     0.62090
F955        F  0.05960950  0.82059067  0.37379017    -0.23080
F956        F  0.01622904  0.79155262  0.40560844    -0.20410
F957        F  0.03722594  0.84660371  0.42483622    -0.20090
F958        F  0.93988654  0.90486085  0.26532965    -0.20140
F959        F  0.91806807  0.93718612  0.31312356    -0.20460
F960        F  0.89251646  0.88339371  0.29759689    -0.23130
C961        C  0.04499494  0.79401722  0.55941708    -0.05970
C962        C  0.04879567  0.77632866  0.52572429    -0.00050
C963        C  0.08376093  0.77113821  0.51078122    -0.08620
C964        C  0.11368120  0.78862351  0.52791686    -0.05990
C965        C  0.10886372  0.81031800  0.55938915    -0.00060
C966        C  0.07437632  0.81131202  0.57647571    -0.08530
C967        C  0.06721046  0.83532780  0.60952596     0.61850
H968        H  0.01792022  0.79732145  0.57058883     0.12550
H969        H  0.14016310  0.78835153  0.51499571     0.12560
C970        C  0.08885759  0.74872162  0.47640571     0.62090
F971        F  0.03458861  0.82636310  0.62607262    -0.23080
F972        F  0.06576542  0.87174354  0.59880916    -0.20410
F973        F  0.09442542  0.83080837  0.63506104    -0.20090
F974        F  0.07097178  0.76518966  0.44759497    -0.20140
F975        F  0.07475169  0.71377994  0.48181310    -0.20460
F976        F  0.12516981  0.74553389  0.46719883    -0.23130
C977        C  0.91474041  0.80911695  0.81990747    -0.05970
C978        C  0.93327146  0.84221802  0.82538847    -0.00050
C979        C  0.95503685  0.84650372  0.85730698    -0.08620
C980        C  0.95519920  0.81799029  0.88366693    -0.05990
C981        C  0.93394738  0.78605805  0.87955257    -0.00060
C982        C  0.91310254  0.78155620  0.84659195    -0.08530
C983        C  0.88707585  0.74935890  0.83933537     0.61850
H984        H  0.89947503  0.80594028  0.79480417     0.12550
H985        H  0.97105142  0.82100833  0.90841291     0.12560
C986        C  0.97706124  0.88120273  0.86441092     0.62090
F987        F  0.86764044  0.75360999  0.80718593    -0.23080
F988        F  0.86183079  0.74657878  0.86734682    -0.20410
F989        F  0.90629764  0.71696241  0.83619044    -0.20090
F990        F  0.95431278  0.91126984  0.86578057    -0.20140
F991        F  0.00240825  0.88608069  0.83680823    -0.20460
F992        F  0.99565305  0.87950984  0.89727823    -0.23130
C993        C  0.79714015  0.50241213  0.33519926    -0.05970
C994        C  0.83354153  0.49946423  0.34625509    -0.00050
C995        C  0.84145898  0.49765434  0.38397983    -0.08620
C996        C  0.81336102  0.50455456  0.40926450    -0.05990
C997        C  0.77732898  0.51187783  0.39810760    -0.00060
C998        C  0.76868874  0.50760912  0.36045689    -0.08530
C999        C  0.72992782  0.50782535  0.34668049     0.61850
H1000       H  0.79138527  0.50273318  0.30612073     0.12550
H1001       H  0.81995066  0.50559753  0.43809319     0.12560
C1002       C  0.87954690  0.48970679  0.39734886     0.62090
F1003       F  0.72762550  0.49657509  0.31056141    -0.23080
F1004       F  0.71585906  0.54288676  0.34887901    -0.20410
F1005       F  0.70928700  0.48372125  0.36754426    -0.20090
F1006       F  0.90320684  0.51661481  0.38511823    -0.20140
F1007       F  0.89052223  0.45600051  0.38402311    -0.20460
F1008       F  0.88143563  0.48852574  0.43518371    -0.23130
C1009       C  0.95721704  0.67463170  0.35625046    -0.05970
C1010       C  0.95352280  0.66359434  0.39301508    -0.00050
C1011       C  0.94816688  0.62596602  0.40129451    -0.08620
C1012       C  0.94459588  0.60100673  0.37236929    -0.05990
C1013       C  0.94366904  0.61256969  0.33565812    -0.00060
C1014       C  0.95233925  0.64964487  0.32718263    -0.08530
C1015       C  0.95636964  0.66290650  0.28797146     0.61850
H1016       H  0.96125847  0.70360078  0.35042945     0.12550
H1017       H  0.93927264  0.57246606  0.37852941     0.12560
C1018       C  0.94124439  0.61283666  0.44012543     0.62090
F1019       F  0.97201526  0.69759793  0.28631243    -0.23080
F1020       F  0.92271503  0.66457917  0.27139602    -0.20410
F1021       F  0.97840730  0.63911561  0.26868038    -0.20090
F1022       F  0.90974004  0.62880172  0.45277951    -0.20140
F1023       F  0.97001614  0.62255918  0.46242791    -0.20460
F1024       F  0.93687420  0.57504220  0.44223307    -0.23130
C1025       C  0.95281955  0.64848962  0.10735489    -0.05970
C1026       C  0.92193769  0.66540379  0.09270396    -0.00050
C1027       C  0.88789911  0.66022457  0.10996781    -0.08620
C1028       C  0.88532964  0.63584743  0.13985502    -0.05990
C1029       C  0.91544606  0.61561841  0.15185714    -0.00060
C1030       C  0.95019596  0.62327993  0.13662168    -0.08530
C1031       C  0.98425263  0.60440526  0.15040481     0.61850
H1032       H  0.97854735  0.65238823  0.09337311     0.12550
H1033       H  0.85911338  0.63033461  0.15226442     0.12560
C1034       C  0.85423022  0.67924199  0.09561135     0.62090
F1035       F  0.01542395  0.62078436  0.13651112    -0.23080
F1036       F  0.98414793  0.56793340  0.13983669    -0.20410
F1037       F  0.98577937  0.60644615  0.18818241    -0.20090
F1038       F  0.84551906  0.66601982  0.06124634    -0.20140
F1039       F  0.86070887  0.71668042  0.09329891    -0.20460
F1040       F  0.82458484  0.67356732  0.11833596    -0.23130
C1041       C  0.97822347  0.15723421  0.19186007    -0.05970
C1042       C  0.00843749  0.16570652  0.16980679    -0.00050
C1043       C  0.04273095  0.15023802  0.17891379    -0.08620
C1044       C  0.04541221  0.12636758  0.20882924    -0.05990
C1045       C  0.01538663  0.11729730  0.23016156    -0.00060
C1046       C  0.98112617  0.13289297  0.22203003    -0.08530
C1047       C  0.94834277  0.12469000  0.24590857     0.61850
H1048       H  0.95258077  0.17018679  0.18561100     0.12550
H1049       H  0.07109690  0.11356291  0.21535694     0.12560
C1050       C  0.07672221  0.15837181  0.15705925     0.62090
F1051       F  0.91881456  0.14589841  0.23617034    -0.23080
F1052       F  0.95665351  0.13204285  0.28210097    -0.20410
F1053       F  0.93850514  0.08812635  0.24259168    -0.20090
F1054       F  0.08540915  0.19521832  0.15999135    -0.20140
F1055       F  0.07066465  0.14887040  0.12112027    -0.20460
F1056       F  0.10638165  0.13858152  0.16917718    -0.23130
C1057       C  0.97902067  0.34847420  0.20769736    -0.05970
C1058       C  0.97479714  0.35080488  0.16945315    -0.00050
C1059       C  0.95485790  0.38064275  0.15426389    -0.08620
C1060       C  0.93870595  0.40553001  0.17788590    -0.05990
C1061       C  0.94316275  0.40406564  0.21592097    -0.00060
C1062       C  0.96363109  0.37500386  0.23142572    -0.08530
C1063       C  0.96850465  0.37152848  0.27246649     0.61850
H1064       H  0.99433762  0.32573768  0.21879898     0.12550
H1065       H  0.92333995  0.42782037  0.16606464     0.12560
C1066       C  0.95116682  0.38800960  0.11315380     0.62090
F1067       F  0.98459937  0.33857272  0.28195315    -0.23080
F1068       F  0.93503624  0.37306979  0.28962778    -0.20410
F1069       F  0.99037112  0.39979143  0.28510486    -0.20090
F1070       F  0.92697092  0.36328233  0.09773392    -0.20140
F1071       F  0.98460710  0.38539712  0.09624146    -0.20460
F1072       F  0.93831741  0.42295895  0.10579092    -0.23130
C1073       C  0.26481402  0.53860601  0.19797036    -0.05970
C1074       C  0.27175759  0.52464284  0.16322356    -0.00050
C1075       C  0.30546557  0.50686766  0.15647997    -0.08620
C1076       C  0.33108669  0.50410565  0.18523608    -0.05990
C1077       C  0.32408970  0.51828617  0.22024207    -0.00060
C1078       C  0.28999433  0.53631352  0.22658282    -0.08530
C1079       C  0.27950175  0.55456295  0.26271669     0.61850
H1080       H  0.23890641  0.55175507  0.20246563     0.12550
H1081       H  0.35684647  0.49073309  0.18059636     0.12560
C1082       C  0.31493438  0.49171949  0.11900146     0.62090
F1083       F  0.24724598  0.57377263  0.26027555    -0.23080
F1084       F  0.30596451  0.57959022  0.27293852    -0.20410
F1085       F  0.27478280  0.52821797  0.28969979    -0.20090
F1086       F  0.31143909  0.51896821  0.09280654    -0.20140
F1087       F  0.29200880  0.46266922  0.11067404    -0.20460
F1088       F  0.35024342  0.47899046  0.11756015    -0.23130
C1089       C  0.15668670  0.39370468  0.08658275    -0.05970
C1090       C  0.14421773  0.42127752  0.06297526    -0.00050
C1091       C  0.11209980  0.41518727  0.04222209    -0.08620
C1092       C  0.09164732  0.38349516  0.04884137    -0.05990
C1093       C  0.10163229  0.35788501  0.07546398    -0.00060
C1094       C  0.13594863  0.36145645  0.09296769    -0.08530
C1095       C  0.14996144  0.33248238  0.11919602     0.61850
H1096       H  0.18138889  0.39879525  0.10184621     0.12550
H1097       H  0.06638194  0.37927566  0.03424414     0.12560
C1098       C  0.09873557  0.44209392  0.01335372     0.62090
F1099       F  0.18350802  0.34203031  0.13349737    -0.23080
F1100       F  0.15380769  0.29948056  0.10089513    -0.20410
F1101       F  0.12594132  0.32797456  0.14802331    -0.20090
F1102       F  0.12636113  0.44901854  0.98886861    -0.20140
F1103       F  0.08764046  0.47458720  0.02920661    -0.20460
F1104       F  0.06961142  0.42819288  0.99368912    -0.23130
C1105       C  0.07480131  0.50350960  0.16295910    -0.05970
C1106       C  0.09143269  0.53781054  0.16803681    -0.00050
C1107       C  0.08040431  0.56015287  0.19773850    -0.08620
C1108       C  0.04998638  0.54895734  0.21885556    -0.05990
C1109       C  0.03109964  0.51611581  0.21120568    -0.00060
C1110       C  0.04544803  0.49179317  0.18451979    -0.08530
C1111       C  0.02903092  0.45419318  0.17700130     0.61850
H1112       H  0.08410178  0.48628171  0.14069543     0.12550
H1113       H  0.03923685  0.56699533  0.23971007     0.12560
C1114       C  0.09942013  0.59629109  0.20580312     0.62090
F1115       F  0.05389499  0.43116140  0.16041819    -0.23080
F1116       F  0.99959422  0.45772856  0.15388215    -0.20410
F1117       F  0.01827344  0.43774219  0.20942810    -0.20090
F1118       F  0.09765217  0.61911198  0.17553074    -0.20140
F1119       F  0.13539555  0.58978511  0.21426010    -0.20460
F1120       F  0.08378528  0.61429697  0.23515884    -0.23130
C1121       C  0.09238628  0.67323278  0.04625340    -0.05970
C1122       C  0.09405755  0.63520465  0.03932838    -0.00050
C1123       C  0.06961868  0.61973478  0.01349084    -0.08620
C1124       C  0.05171704  0.64310708  0.98964508    -0.05990
C1125       C  0.04405692  0.67894759  0.00083770    -0.00060
C1126       C  0.06527207  0.69494694  0.02914406    -0.08530
C1127       C  0.05824930  0.73385851  0.04166110     0.61850
H1128       H  0.11065767  0.68511713  0.06624085     0.12550
H1129       H  0.03512106  0.63078109  0.96830628     0.12560
C1130       C  0.05615806  0.57993967  0.01463802     0.62090
F1131       F  0.08283561  0.74492259  0.06812171    -0.23080
F1132       F  0.02367618  0.73623160  0.05627189    -0.20410
F1133       F  0.06118299  0.75755211  0.01212190    -0.20090
F1134       F  0.01864241  0.57910022  0.01186034    -0.20140
F1135       F  0.06462823  0.56257332  0.04713157    -0.20460
F1136       F  0.07048978  0.56030934  0.98582642    -0.23130
C1137       C  0.10702287  0.41704461  0.70149902    -0.05970
C1138       C  0.10911978  0.45003762  0.72109855    -0.00050
C1139       C  0.14024395  0.47283821  0.71766559    -0.08620
C1140       C  0.16837367  0.46183308  0.69399415    -0.05990
C1141       C  0.16668588  0.42811882  0.67548488    -0.00060
C1142       C  0.13567041  0.40530683  0.67923191    -0.08530
C1143       C  0.13296730  0.36875689  0.65961078     0.61850
H1144       H  0.08346203  0.39944791  0.70538587     0.12550
H1145       H  0.19198947  0.47929565  0.68990574     0.12560
C1146       C  0.14335206  0.50859085  0.73873256     0.62090
F1147       F  0.10143801  0.34971393  0.66843230    -0.23080
F1148       F  0.16224030  0.34700727  0.66881698    -0.20410
F1149       F  0.13312320  0.37499642  0.62243351    -0.20090
F1150       F  0.14530449  0.50145560  0.77586413    -0.20140
F1151       F  0.11324405  0.53001312  0.73180716    -0.20460
F1152       F  0.17402559  0.52845190  0.72875259    -0.23130
C1153       C  0.03154081  0.31652804  0.73481011    -0.05970
C1154       C  0.01016969  0.34793812  0.73098054    -0.00050
C1155       C  0.98601486  0.35019861  0.70065299    -0.08620
C1156       C  0.98544358  0.32127534  0.67467794    -0.05990
C1157       C  0.00790787  0.29034743  0.67805639    -0.00060
C1158       C  0.03170059  0.28811596  0.70898958    -0.08530
C1159       C  0.05880468  0.25702025  0.71490028     0.61850
H1160       H  0.04910423  0.31469641  0.75845723     0.12550
H1161       H  0.96755925  0.32273762  0.65124635     0.12560
C1162       C  0.96151925  0.38309815  0.69505082     0.62090
F1163       F  0.08215520  0.26387072  0.74382122    -0.23080
F1164       F  0.08011502  0.25273670  0.68403482    -0.20410
F1165       F  0.04053882  0.22458568  0.72277706    -0.20090
F1166       F  0.98221008  0.41492367  0.69296848    -0.20140
F1167       F  0.93732830  0.38557723  0.72392710    -0.20460
F1168       F  0.94151569  0.38031209  0.66311125    -0.23130
C1169       C  0.98789435  0.30254814  0.94068993    -0.05970
C1170       C  0.01639227  0.28442163  0.95793560    -0.00050
C1171       C  0.05219865  0.28888718  0.94448084    -0.08620
C1172       C  0.05888581  0.31510079  0.91672508    -0.05990
C1173       C  0.03082729  0.33730579  0.90339933    -0.00060
C1174       C  0.99445037  0.32952756  0.91404673    -0.08530
C1175       C  0.96276217  0.35203996  0.90071509     0.61850
H1176       H  0.96088633  0.29953778  0.95206799     0.12550
H1177       H  0.08638960  0.32054402  0.90755577     0.12560
C1178       C  0.08318719  0.26733265  0.96110161     0.62090
F1179       F  0.92972210  0.33559392  0.90905225    -0.23080
F1180       F  0.96455682  0.35606324  0.86311177    -0.20410
F1181       F  0.96382592  0.38586526  0.91776315    -0.20090
F1182       F  0.07479627  0.23021277  0.96028329    -0.20140
F1183       F  0.08867256  0.27792560  0.99701622    -0.20460
F1184       F  0.11527154  0.27281943  0.94200591    -0.23130
C1185       C  0.13461207  0.51393513  0.89969475    -0.05970
C1186       C  0.13461786  0.47551654  0.89540742    -0.00050
C1187       C  0.16191826  0.45487976  0.91344246    -0.08620
C1188       C  0.18315033  0.47262091  0.94039434    -0.05990
C1189       C  0.17736111  0.50959991  0.94943577    -0.00060
C1190       C  0.15600178  0.53142814  0.92615304    -0.08530
C1191       C  0.15384934  0.57287905  0.92961814     0.61850
H1192       H  0.11620354  0.53032817  0.88369400     0.12550
H1193       H  0.20056707  0.45654305  0.95803715     0.12560
C1194       C  0.16683936  0.41410074  0.90668769     0.62090
F1195       F  0.16244642  0.58883676  0.89628637    -0.23080
F1196       F  0.17769019  0.58656602  0.95554471    -0.20410
F1197       F  0.11901815  0.58295758  0.93906281    -0.20090
F1198       F  0.17419188  0.40831536  0.87001447    -0.20140
F1199       F  0.13567007  0.39507013  0.91656069    -0.20460
F1200       F  0.19547012  0.39999868  0.92668532    -0.23130
C1201       C  0.99138924  0.61652372  0.86555033    -0.05970
C1202       C  0.95347401  0.61600626  0.87065603    -0.00050
C1203       C  0.93222595  0.59037218  0.85046105    -0.08620
C1204       C  0.95024999  0.56285306  0.83040065    -0.05990
C1205       C  0.98822856  0.56022503  0.83033201    -0.00060
C1206       C  0.00909534  0.58899953  0.84542739    -0.08530
C1207       C  0.04994956  0.58938483  0.84137181     0.61850
H1208       H  0.00734956  0.63718066  0.87969175     0.12550
H1209       H  0.93477992  0.54065405  0.81811779     0.12560
C1210       C  0.89104066  0.58986974  0.85229833     0.62090
F1211       F  0.06550318  0.62053425  0.85661229    -0.23080
F1212       F  0.05892448  0.58847400  0.80460096    -0.20410
F1213       F  0.06423683  0.55896786  0.85849741    -0.20090
F1214       F  0.87775711  0.62326201  0.84031676    -0.20140
F1215       F  0.87971720  0.58344977  0.88785289    -0.20460
F1216       F  0.87617730  0.56265105  0.83039605    -0.23130
C1217       C  0.67506105  0.43995134  0.86543791    -0.05970
C1218       C  0.66440888  0.44279775  0.90225823    -0.00050
C1219       C  0.62937893  0.45830809  0.91007735    -0.08620
C1220       C  0.60525091  0.46503554  0.88088430    -0.05990
C1221       C  0.61515225  0.45885054  0.84456216    -0.00060
C1222       C  0.65164951  0.44948320  0.83661396    -0.08530
C1223       C  0.66677157  0.44905244  0.79800895     0.61850
H1224       H  0.70213804  0.43046656  0.85891040     0.12550
H1225       H  0.57744852  0.47282362  0.88636830     0.12560
C1226       C  0.61621413  0.46716375  0.94862470     0.62090
F1227       F  0.70064528  0.46577118  0.79746080    -0.23080
F1228       F  0.64493197  0.46811607  0.77386896    -0.20410
F1229       F  0.67017884  0.41312233  0.78630298    -0.20090
F1230       F  0.64005024  0.49154399  0.96516163    -0.20140
F1231       F  0.61337098  0.43526617  0.96911892    -0.20460
F1232       F  0.58237865  0.48354717  0.94861106    -0.23130
C1233       C  0.82073353  0.53137996  0.97184230    -0.05970
C1234       C  0.78353139  0.53553357  0.97742197    -0.00050
C1235       C  0.76846334  0.57117395  0.97441659    -0.08620
C1236       C  0.79250900  0.60151114  0.96838228    -0.05990
C1237       C  0.83064254  0.59691343  0.96944872    -0.00060
C1238       C  0.84443510  0.56078509  0.97473417    -0.08530
C1239       C  0.88295967  0.55203220  0.98732745     0.61850
H1240       H  0.83188703  0.50396355  0.97101910     0.12550
H1241       H  0.78182182  0.62889931  0.96458073     0.12560
C1242       C  0.72794986  0.57691012  0.97737070     0.62090
F1243       F  0.88575178  0.51641783  0.00052159    -0.23080
F1244       F  0.89277523  0.57493437  0.01589906    -0.20410
F1245       F  0.90707464  0.55607105  0.95854922    -0.20090
F1246       F  0.71578801  0.56548474  0.01135251    -0.20140
F1247       F  0.71043858  0.55673569  0.95055609    -0.20460
F1248       F  0.71888237  0.61352328  0.97294616    -0.23130
C1249       C  0.88000736  0.45101321  0.92106149    -0.05970
C1250       C  0.85193209  0.42758537  0.90921084    -0.00050
C1251       C  0.85387743  0.41319812  0.87283577    -0.08620
C1252       C  0.88426599  0.42237436  0.85064391    -0.05990
C1253       C  0.91294300  0.44408140  0.86384959    -0.00060
C1254       C  0.91074927  0.45882517  0.89981121    -0.08530
C1255       C  0.94041048  0.48330228  0.91634971     0.61850
H1256       H  0.87850983  0.46252153  0.94821433     0.12550
H1257       H  0.88722213  0.41042761  0.82368855     0.12560
C1258       C  0.82535492  0.38704629  0.85762024     0.62090
F1259       F  0.93269387  0.49290555  0.95195212    -0.23080
F1260       F  0.94357033  0.51511091  0.89594196    -0.20410
F1261       F  0.97352307  0.46602157  0.91797637    -0.20090
F1262       F  0.79179999  0.40388100  0.85750647    -0.20140
F1263       F  0.82390979  0.35544112  0.87874178    -0.20460
F1264       F  0.83304010  0.37663750  0.82201536    -0.23130
C1265       C  0.86789371  0.29065217  0.07503794    -0.05970
C1266       C  0.88625094  0.26908251  0.04936926    -0.00050
C1267       C  0.87101576  0.26475082  0.01400668    -0.08620
C1268       C  0.84117152  0.28678355  0.00368208    -0.05990
C1269       C  0.82605205  0.31225618  0.02811544    -0.00060
C1270       C  0.83711345  0.31117510  0.06540094    -0.08530
C1271       C  0.81905221  0.33366542  0.09514511     0.61850
H1272       H  0.87933906  0.29375260  0.10220878     0.12550
H1273       H  0.83188518  0.28673309  0.97557162     0.12560
C1274       C  0.88758696  0.23822587  0.98692432     0.62090
F1275       F  0.81660841  0.31316144  0.12703168    -0.23080
F1276       F  0.78418210  0.34377937  0.08556747    -0.20410
F1277       F  0.83958053  0.36488628  0.10195132    -0.20090
F1278       F  0.88860154  0.20349451  0.00236089    -0.20140
F1279       F  0.92247692  0.24916785  0.97819121    -0.20460
F1280       F  0.86768196  0.23624545  0.95486945    -0.23130
C1281       C  0.77156585  0.44866939  0.14886723    -0.05970
C1282       C  0.76311959  0.47063832  0.11843042    -0.00050
C1283       C  0.76694455  0.50967307  0.12174520    -0.08620
C1284       C  0.78448639  0.52418082  0.15284785    -0.05990
C1285       C  0.79771169  0.50145267  0.18051028    -0.00060
C1286       C  0.78808565  0.46370935  0.18031970    -0.08530
C1287       C  0.79625621  0.43945397  0.21298840     0.61850
H1288       H  0.76724522  0.41924467  0.14694131     0.12550
H1289       H  0.79221609  0.55298386  0.15351356     0.12560
C1290       C  0.75836778  0.53621232  0.09095293     0.62090
F1291       F  0.78096171  0.40478297  0.20927694    -0.23080
F1292       F  0.78217082  0.45531171  0.24427394    -0.20410
F1293       F  0.83323300  0.43553960  0.21701748    -0.20090
F1294       F  0.72446001  0.52896748  0.07655757    -0.20140
F1295       F  0.78462437  0.53337867  0.06425819    -0.20460
F1296       F  0.75828937  0.57233450  0.10288408    -0.23130
C1297       C  0.81689164  0.84951677  0.00939137    -0.05970
C1298       C  0.78042523  0.83876288  0.00595907    -0.00050
C1299       C  0.77199813  0.80055041  0.00121006    -0.08620
C1300       C  0.80031672  0.77582634  0.99537428    -0.05990
C1301       C  0.83649355  0.78714444  0.99579029    -0.00060
C1302       C  0.84533012  0.82426180  0.00438970    -0.08530
C1303       C  0.88441173  0.83781649  0.00589808     0.61850
H1304       H  0.82304243  0.87837838  0.01334276     0.12550
H1305       H  0.79422660  0.74726901  0.98931503     0.12560
C1306       C  0.73352008  0.78516450  0.99943713     0.62090
F1307       F  0.88660051  0.87542331  0.01135730    -0.23080
F1308       F  0.90184485  0.82994424  0.97331644    -0.20410
F1309       F  0.90231657  0.82090415  0.03451859    -0.20090
F1310       F  0.72011050  0.78866153  0.96423773    -0.20140
F1311       F  0.71126913  0.80339747  0.02368073    -0.20460
F1312       F  0.73252995  0.74822593  0.00874566    -0.23130
C1313       C  0.78349701  0.90904444  0.87600223    -0.05970
C1314       C  0.77193953  0.94122394  0.89310089    -0.00050
C1315       C  0.78968328  0.97507957  0.88445664    -0.08620
C1316       C  0.81825171  0.97506469  0.85839501    -0.05990
C1317       C  0.82980284  0.94241901  0.84174841    -0.00060
C1318       C  0.81220990  0.90872709  0.85110955    -0.08530
C1319       C  0.82477135  0.87176548  0.83689581     0.61850
H1320       H  0.77065222  0.88327463  0.88359284     0.12550
H1321       H  0.83144213  0.00055929  0.85042743     0.12560
C1322       C  0.77812774  0.01106188  0.90169542     0.62090
F1323       F  0.80429930  0.84266792  0.85046381    -0.23080
F1324       F  0.86004686  0.86650005  0.84812711    -0.20410
F1325       F  0.82227772  0.87052824  0.79921371    -0.20090
F1326       F  0.78786879  0.01157076  0.93822238    -0.20140
F1327       F  0.74091715  0.01501510  0.89866963    -0.20460
F1328       F  0.79448302  0.04099735  0.88477599    -0.23130
C1329       C  0.48376749  0.35835819  0.87236473    -0.05970
C1330       C  0.50094161  0.34830525  0.83906452    -0.00050
C1331       C  0.50588298  0.31015597  0.83224758    -0.08620
C1332       C  0.49456009  0.28464764  0.85856258    -0.05990
C1333       C  0.48441945  0.29500668  0.89408533    -0.00060
C1334       C  0.47549385  0.33228054  0.90021440    -0.08530
C1335       C  0.45617814  0.34426168  0.93484416     0.61850
H1336       H  0.47808987  0.38708140  0.87722666     0.12550
H1337       H  0.49746848  0.25563245  0.85281880     0.12560
C1338       C  0.52363976  0.29545440  0.79799172     0.62090
F1339       F  0.44596086  0.38078258  0.93312033    -0.23080
F1340       F  0.47833739  0.34002911  0.96489232    -0.20410
F1341       F  0.42514785  0.32314395  0.93964224    -0.20090
F1342       F  0.55895378  0.30838421  0.79518505    -0.20140
F1343       F  0.50345975  0.30673928  0.76872079    -0.20460
F1344       F  0.52491830  0.25741139  0.79702300    -0.23130
C1345       C  0.63798853  0.27401064  0.00466875    -0.05970
C1346       C  0.60279861  0.28632433  0.99730022    -0.00050
C1347       C  0.59472042  0.32430428  0.00207895    -0.08620
C1348       C  0.62233163  0.34852880  0.01353548    -0.05990
C1349       C  0.65796199  0.33666626  0.01840016    -0.00060
C1350       C  0.66564650  0.29851697  0.01564546    -0.08530
C1351       C  0.70288089  0.28270475  0.02314689     0.61850
H1352       H  0.64397081  0.24500742  0.00181370     0.12550
H1353       H  0.61709635  0.37773480  0.01519203     0.12560
C1354       C  0.55805806  0.34006870  0.99180927     0.62090
F1355       F  0.69959123  0.25333613  0.04709847    -0.23080
F1356       F  0.72618233  0.30811432  0.03883784    -0.20410
F1357       F  0.71791049  0.27041624  0.99072775    -0.20090
F1358       F  0.53196311  0.32845086  0.01656708    -0.20140
F1359       F  0.54892016  0.32863476  0.95691443    -0.20460
F1360       F  0.55825373  0.37814220  0.99182823    -0.23130
C1361       C  0.63394878  0.10316937  0.97015785    -0.05970
C1362       C  0.59953868  0.09710100  0.95457945    -0.00050
C1363       C  0.59125581  0.06222430  0.93972789    -0.08620
C1364       C  0.61514080  0.03323372  0.94628275    -0.05990
C1365       C  0.64656311  0.03754084  0.96791385    -0.00060
C1366       C  0.65814845  0.07376080  0.97653177    -0.08530
C1367       C  0.69504543  0.08138953  0.99283575     0.61850
H1368       H  0.64080037  0.13062702  0.97936989     0.12550
H1369       H  0.60782855  0.00605555  0.93658579     0.12560
C1370       C  0.55675790  0.05500243  0.91807032     0.62090
F1371       F  0.70222015  0.11872070  0.99525236    -0.23080
F1372       F  0.72161336  0.06582967  0.97112467    -0.20410
F1373       F  0.69655613  0.06668155  0.02751184    -0.20090
F1374       F  0.55049857  0.08370786  0.89412581    -0.20140
F1375       F  0.52754439  0.05118269  0.94164422    -0.20460
F1376       F  0.55939271  0.02328636  0.89748753    -0.23130
C1377       C  0.63551033  0.01048160  0.40584863    -0.05970
C1378       C  0.67168477  0.01543918  0.39444483    -0.00050
C1379       C  0.68052028  0.01107538  0.35721927    -0.08620
C1380       C  0.65226650  0.00400182  0.33215697    -0.05990
C1381       C  0.61518943  0.00289658  0.34275546    -0.00060
C1382       C  0.60685557  0.00504352  0.38075668    -0.08530
C1383       C  0.56813820  0.00354581  0.39511529     0.61850
H1384       H  0.62963376  0.01317631  0.43477936     0.12550
H1385       H  0.65904281  0.00138406  0.30344723     0.12560
C1386       C  0.71959796  0.01396690  0.34419511     0.62090
F1387       F  0.56682709  0.00432235  0.43299150    -0.23080
F1388       F  0.55147161  0.97133227  0.38382388    -0.20410
F1389       F  0.54897393  0.03349651  0.38231041    -0.20090
F1390       F  0.74079598  0.98930736  0.36338467    -0.20140
F1391       F  0.73264755  0.04920862  0.34996381    -0.20460
F1392       F  0.72287110  0.00621533  0.30725845    -0.23130
C1393       C  0.49555339  0.10985177  0.36657323    -0.05970
C1394       C  0.51916369  0.11619010  0.33674588    -0.00050
C1395       C  0.53654458  0.15094762  0.33336132    -0.08620
C1396       C  0.52966875  0.17773772  0.35969103    -0.05990
C1397       C  0.50664197  0.17151251  0.38985133    -0.00060
C1398       C  0.48938392  0.13673461  0.39367682    -0.08530
C1399       C  0.46493317  0.12768586  0.42599274     0.61850
H1400       H  0.48280345  0.08306427  0.36919037     0.12550
H1401       H  0.54387702  0.20378461  0.35743483     0.12560
C1402       C  0.56225710  0.16046831  0.30218506     0.62090
F1403       F  0.44757522  0.09407576  0.42179191    -0.23080
F1404       F  0.43856181  0.15433701  0.42957438    -0.20410
F1405       F  0.48536822  0.12603951  0.45767581    -0.20090
F1406       F  0.54651266  0.15049694  0.26955993    -0.20140
F1407       F  0.59467222  0.14203899  0.30662332    -0.20460
F1408       F  0.56996967  0.19775457  0.30027305    -0.23130
C1409       C  0.51846889  0.17332972  0.12361612    -0.05970
C1410       C  0.53503026  0.16273924  0.09085935    -0.00050
C1411       C  0.56178594  0.13484359  0.09140075    -0.08620
C1412       C  0.56559164  0.11362646  0.12299780    -0.05990
C1413       C  0.54597515  0.12131396  0.15483359    -0.00060
C1414       C  0.52417939  0.15337192  0.15620423    -0.08530
C1415       C  0.50824900  0.16754050  0.19151942     0.61850
H1416       H  0.49961193  0.19602484  0.12306835     0.12550
H1417       H  0.58308920  0.08974448  0.12239660     0.12560
C1418       C  0.58420971  0.12442392  0.05815294     0.62090
F1419       F  0.48262628  0.19453932  0.18540636    -0.23080
F1420       F  0.53608562  0.18302165  0.21158145    -0.20410
F1421       F  0.49177397  0.13951298  0.21121748    -0.20090
F1422       F  0.58773093  0.15360263  0.03400909    -0.20140
F1423       F  0.56795111  0.09495673  0.04061486    -0.20460
F1424       F  0.61881672  0.11430705  0.06871095    -0.23130
C1425       C  0.66064960  0.00911123  0.15479116    -0.05970
C1426       C  0.63154216  0.98659186  0.16666414    -0.00050
C1427       C  0.63179355  0.94871145  0.15692191    -0.08620
C1428       C  0.65851264  0.93615482  0.13288144    -0.05990
C1429       C  0.68192106  0.96041495  0.11491136    -0.00060
C1430       C  0.68613129  0.99627286  0.12887702    -0.08530
C1431       C  0.71750471  0.02014888  0.11634773     0.61850
H1432       H  0.66202085  0.03736990  0.16395208     0.12550
H1433       H  0.65714360  0.90835926  0.12281596     0.12560
C1434       C  0.60301810  0.92150280  0.16938477     0.62090
F1435       F  0.71749866  0.05409969  0.13338148    -0.23080
F1436       F  0.71579124  0.02559523  0.07909377    -0.20410
F1437       F  0.74974557  0.00271965  0.12454323    -0.20090
F1438       F  0.57074892  0.92793651  0.15114879    -0.20140
F1439       F  0.59801968  0.92484264  0.20668696    -0.20460
F1440       F  0.61304094  0.88562492  0.16213807    -0.23130
C1441       C  0.12726280  0.12000633  0.03810867    -0.05970
C1442       C  0.16173867  0.13112797  0.05012432    -0.00050
C1443       C  0.16813420  0.16889680  0.05794322    -0.08620
C1444       C  0.13827115  0.19215427  0.06136971    -0.05990
C1445       C  0.10300163  0.17977533  0.05404904    -0.00060
C1446       C  0.09754249  0.14395639  0.03927891    -0.08530
C1447       C  0.06053172  0.12995013  0.02685697     0.61850
H1448       H  0.12305954  0.09153324  0.03057991     0.12550
H1449       H  0.14236157  0.22008585  0.07092377     0.12560
C1450       C  0.20558803  0.18501748  0.06503026     0.62090
F1451       F  0.06191536  0.09403379  0.01447542    -0.23080
F1452       F  0.04813181  0.15146640  0.99828136    -0.20410
F1453       F  0.03601681  0.13101026  0.05554177    -0.20090
F1454       F  0.23183306  0.16649294  0.04540630    -0.20140
F1455       F  0.21334412  0.18313102  0.10201727    -0.20460
F1456       F  0.20707681  0.22151185  0.05419610    -0.23130
C1457       C  0.09341417  0.01497471  0.18196662    -0.05970
C1458       C  0.10312711  0.99799069  0.21501590    -0.00050
C1459       C  0.13989003  0.98783016  0.22055122    -0.08620
C1460       C  0.16610700  0.99713217  0.19370256    -0.05990
C1461       C  0.15664109  0.01643525  0.16187357    -0.00060
C1462       C  0.11959481  0.02477026  0.15538892    -0.08530
C1463       C  0.10811128  0.04607322  0.12153939     0.61850
H1464       H  0.06547720  0.02343764  0.17853129     0.12550
H1465       H  0.19440007  0.99040117  0.19788954     0.12560
C1466       C  0.15130336  0.96758024  0.25497926     0.62090
F1467       F  0.07135621  0.05381914  0.12178060    -0.23080
F1468       F  0.11548731  0.02579851  0.09048480    -0.20410
F1469       F  0.12691134  0.07907132  0.11984687    -0.20090
F1470       F  0.12901100  0.93724894  0.26019472    -0.20140
F1471       F  0.14867398  0.99040961  0.28502636    -0.20460
F1472       F  0.18678692  0.95546645  0.25266362    -0.23130
C1473       C  0.34524952  0.03025643  0.20311745    -0.05970
C1474       C  0.34666212  0.05577790  0.17419222    -0.00050
C1475       C  0.37743805  0.07908743  0.17104057    -0.08620
C1476       C  0.40808391  0.07186568  0.19249944    -0.05990
C1477       C  0.40893780  0.04265155  0.21769750    -0.00060
C1478       C  0.37579457  0.02416028  0.22592886    -0.08530
C1479       C  0.37270271  0.99822690  0.25808297     0.61850
H1480       H  0.32075155  0.01397733  0.20661899     0.12550
H1481       H  0.43268746  0.08777648  0.18802211     0.12560
C1482       C  0.37767820  0.11198134  0.14556293     0.62090
F1483       F  0.33794896  0.98393317  0.26184588    -0.23080
F1484       F  0.38151402  0.01673408  0.28990202    -0.20410
F1485       F  0.39615178  0.96952307  0.25344057    -0.20090
F1486       F  0.34711014  0.13268621  0.15244500    -0.20140
F1487       F  0.37778634  0.10066809  0.10949213    -0.20460
F1488       F  0.40786466  0.13421749  0.15092215    -0.23130
C1489       C  0.36399267  0.16931959  0.99602922    -0.05970
C1490       C  0.38851339  0.18474326  0.02077014    -0.00050
C1491       C  0.37872002  0.18768489  0.05817865    -0.08620
C1492       C  0.34636500  0.17048046  0.07022539    -0.05990
C1493       C  0.32546929  0.14898346  0.04625855    -0.00060
C1494       C  0.33198071  0.15226860  0.00811464    -0.08530
C1495       C  0.30813231  0.13421077  0.97981738     0.61850
H1496       H  0.37123649  0.16815930  0.96728694     0.12550
H1497       H  0.33970567  0.17008242  0.09896818     0.12560
C1498       C  0.40411444  0.20550121  0.08562769     0.62090
F1499       F  0.30548672  0.15639192  0.94909678    -0.23080
F1500       F  0.27340080  0.12840346  0.99322758    -0.20410
F1501       F  0.32345770  0.10109596  0.96985641    -0.20090
F1502       F  0.41146089  0.24133394  0.07512702    -0.20140
F1503       F  0.43620852  0.18607979  0.08715541    -0.20460
F1504       F  0.38921947  0.20619255  0.12043474    -0.23130
C1505       C  0.44561428  0.64085907  0.16808905    -0.05970
C1506       C  0.44178299  0.67773623  0.17840106    -0.00050
C1507       C  0.43450388  0.68602551  0.21574994    -0.08620
C1508       C  0.42554975  0.65722259  0.23992992    -0.05990
C1509       C  0.42615672  0.62051497  0.22864835    -0.00060
C1510       C  0.43750240  0.61192332  0.19251792    -0.08530
C1511       C  0.43832350  0.57252777  0.17890818     0.61850
H1512       H  0.45201781  0.63480590  0.13982628     0.12550
H1513       H  0.41805011  0.66338836  0.26796085     0.12560
C1514       C  0.43491616  0.72494725  0.23063627     0.62090
F1515       F  0.44839793  0.57046446  0.14243867    -0.23080
F1516       F  0.40415062  0.55698255  0.18236655    -0.20410
F1517       F  0.46291597  0.55233942  0.19904788    -0.20090
F1518       F  0.39999304  0.73866266  0.23086950    -0.20140
F1519       F  0.45709355  0.74776487  0.20988892    -0.20460
F1520       F  0.44814953  0.72525276  0.26609216    -0.23130
C1521       C  0.31138084  0.61629487  0.05992454    -0.05970
C1522       C  0.27570076  0.62890382  0.05586281    -0.00050
C1523       C  0.26956256  0.66747673  0.05286563    -0.08620
C1524       C  0.29891414  0.69176532  0.05838059    -0.05990
C1525       C  0.33392388  0.67893325  0.06562876    -0.00060
C1526       C  0.34067306  0.64053935  0.06521654    -0.08530
C1527       C  0.37801071  0.62484292  0.07307894     0.61850
H1528       H  0.31597178  0.58699788  0.06142511     0.12550
H1529       H  0.29447860  0.72119205  0.05818274     0.12560
C1530       C  0.23242562  0.68361569  0.04482557     0.62090
F1531       F  0.37743693  0.58684333  0.07551641    -0.23080
F1532       F  0.39058707  0.63834744  0.10603914    -0.20410
F1533       F  0.40185015  0.63447961  0.04534601    -0.20090
F1534       F  0.21145927  0.68354400  0.07627638    -0.20140
F1535       F  0.21514421  0.66346896  0.01781240    -0.20460
F1536       F  0.23522530  0.71957951  0.03253354    -0.23130
C1537       C  0.31086233  0.91924254  0.04706902    -0.05970
C1538       C  0.28256149  0.92315933  0.07212207    -0.00050
C1539       C  0.27713937  0.89685260  0.09989704    -0.08620
C1540       C  0.30202909  0.86772106  0.10269167    -0.05990
C1541       C  0.33338438  0.86655178  0.08041422    -0.00060
C1542       C  0.33784468  0.89302833  0.05184608    -0.08530
C1543       C  0.37170589  0.89642528  0.02794458     0.61850
H1544       H  0.31453166  0.94062187  0.02668557     0.12550
H1545       H  0.29875699  0.84750486  0.12427610     0.12560
C1546       C  0.24638564  0.90095010  0.12714231     0.62090
F1547       F  0.36792836  0.92250530  0.00058093    -0.23080
F1548       F  0.37884122  0.86343368  0.01116884    -0.20410
F1549       F  0.40108587  0.90717813  0.04897030    -0.20090
F1550       F  0.21369463  0.90203379  0.10860721    -0.20140
F1551       F  0.25076270  0.93323438  0.14664925    -0.20460
F1552       F  0.24512401  0.87199209  0.15177579    -0.23130
C1553       C  0.48983670  0.84610564  0.20058006    -0.05970
C1554       C  0.45266403  0.84754156  0.19218350    -0.00050
C1555       C  0.43028154  0.87171844  0.21232055    -0.08620
C1556       C  0.44714971  0.89856912  0.23431380    -0.05990
C1557       C  0.48494848  0.90155849  0.23696498    -0.00060
C1558       C  0.50600593  0.87196326  0.22419536    -0.08530
C1559       C  0.54397157  0.86476882  0.23762238     0.61850
H1560       H  0.50650377  0.82520290  0.18792712     0.12550
H1561       H  0.43117827  0.91929500  0.24725381     0.12560
C1562       C  0.38922176  0.87079465  0.20898308     0.62090
F1563       F  0.54351210  0.83330917  0.25895553    -0.23080
F1564       F  0.55739921  0.89336493  0.25861198    -0.20410
F1565       F  0.56670577  0.85886260  0.20826380    -0.20090
F1566       F  0.37633038  0.83656209  0.21953063    -0.20140
F1567       F  0.37911067  0.87773912  0.17319996    -0.20460
F1568       F  0.37294105  0.89674363  0.23115452    -0.23130
C1569       C  0.57730544  0.78833126  0.07679532    -0.05970
C1570       C  0.55041398  0.77939248  0.05123848    -0.00050
C1571       C  0.55808518  0.78346819  0.01348042    -0.08620
C1572       C  0.59069715  0.80018427  0.00250541    -0.05990
C1573       C  0.61488005  0.81485731  0.02813866    -0.00060
C1574       C  0.61010433  0.80549483  0.06575736    -0.08530
C1575       C  0.63962996  0.81224229  0.09385660     0.61850
H1576       H  0.57137333  0.78420127  0.10556974     0.12550
H1577       H  0.59464241  0.80691444  0.97386175     0.12560
C1578       C  0.52866491  0.77851438  0.98536735     0.62090
F1579       F  0.63039463  0.79786315  0.12777714    -0.23080
F1580       F  0.64601773  0.84924548  0.09814444    -0.20410
F1581       F  0.67121598  0.79548090  0.08256967    -0.20090
F1582       F  0.50481982  0.80739259  0.98944671    -0.20140
F1583       F  0.51076693  0.74535658  0.99060735    -0.20460
F1584       F  0.54222182  0.77901464  0.94999100    -0.23130
C1585       C  0.32664487  0.91507194  0.70429413    -0.05970
C1586       C  0.33544198  0.95057590  0.71585493    -0.00050
C1587       C  0.31659083  0.98106927  0.70176313    -0.08620
C1588       C  0.28928843  0.97473823  0.67537567    -0.05990
C1589       C  0.27946200  0.93876965  0.66495590    -0.00060
C1590       C  0.29841687  0.90831757  0.67977102    -0.08530
C1591       C  0.28958759  0.86868883  0.66974528     0.61850
H1592       H  0.34130775  0.89223925  0.71615997     0.12550
H1593       H  0.27472098  0.99762173  0.66353376     0.12560
C1594       C  0.32485524  0.01948407  0.71537429     0.62090
F1595       F  0.31263071  0.84394985  0.68660396    -0.23080
F1596       F  0.29323220  0.86410326  0.63255156    -0.20410
F1597       F  0.25455125  0.85986984  0.68033187    -0.20090
F1598       F  0.36090090  0.02799166  0.70859864    -0.20140
F1599       F  0.31845788  0.02126309  0.75265568    -0.20460
F1600       F  0.30349701  0.04553113  0.69826254    -0.23130
C1601       C  0.45063324  0.85727368  0.69147586    -0.05970
C1602       C  0.43576024  0.84679104  0.72562636    -0.00050
C1603       C  0.43031729  0.80886976  0.73278676    -0.08620
C1604       C  0.43864356  0.78321042  0.70529119    -0.05990
C1605       C  0.44938279  0.79367395  0.66956652    -0.00060
C1606       C  0.45684316  0.83150112  0.66296684    -0.08530
C1607       C  0.46977997  0.84491449  0.62581973     0.61850
H1608       H  0.45533501  0.88628179  0.68652420     0.12550
H1609       H  0.43404628  0.75430813  0.71088001     0.12560
C1610       C  0.41510293  0.79518452  0.76904686     0.62090
F1611       F  0.47663967  0.88238660  0.62564578    -0.23080
F1612       F  0.44357602  0.83767037  0.59969427    -0.20410
F1613       F  0.50160955  0.82723945  0.61652289    -0.20090
F1614       F  0.37923095  0.80556051  0.77251566    -0.20140
F1615       F  0.43505347  0.80978620  0.79747337    -0.20460
F1616       F  0.41640810  0.75725572  0.77200744    -0.23130
C1617       C  0.52620147  0.94953885  0.89607880    -0.05970
C1618       C  0.52803675  0.93865684  0.85941145    -0.00050
C1619       C  0.55929741  0.92097395  0.84622894    -0.08620
C1620       C  0.58761031  0.91379976  0.87120901    -0.05990
C1621       C  0.58370881  0.92094750  0.90906838    -0.00060
C1622       C  0.55150756  0.93819407  0.92187669    -0.08530
C1623       C  0.54168389  0.94291116  0.96224310     0.61850
H1624       H  0.50213114  0.96393575  0.90509462     0.12550
H1625       H  0.61211736  0.90065374  0.86161663     0.12560
C1626       C  0.56190617  0.90870592  0.80673474     0.62090
F1627       F  0.50842610  0.95979097  0.96705184    -0.23080
F1628       F  0.56725698  0.96437198  0.97974398    -0.20410
F1629       F  0.53928614  0.90878358  0.97895630    -0.20090
F1630       F  0.55893789  0.93890224  0.78389016    -0.20140
F1631       F  0.53417180  0.88406820  0.79907429    -0.20460
F1632       F  0.59463597  0.89169662  0.79945912    -0.23130
C1633       C  0.37388580  0.82230637  0.92463619    -0.05970
C1634       C  0.40320971  0.83507570  0.90334533    -0.00050
C1635       C  0.43813540  0.82018877  0.90930325    -0.08620
C1636       C  0.44293096  0.79548597  0.93852133    -0.05990
C1637       C  0.41536433  0.78872866  0.96409366    -0.00060
C1638       C  0.37952509  0.79947980  0.95543890    -0.08530
C1639       C  0.34760355  0.78607956  0.97835269     0.61850
H1640       H  0.34693460  0.83208387  0.91836961     0.12550
H1641       H  0.46928810  0.78412888  0.94337318     0.12560
C1642       C  0.47162909  0.83476144  0.88967007     0.62090
F1643       F  0.31495321  0.79925992  0.96516638    -0.23080
F1644       F  0.35110556  0.79714688  0.01431432    -0.20410
F1645       F  0.34635535  0.74809077  0.97745935    -0.20090
F1646       F  0.48287215  0.86690009  0.90641204    -0.20140
F1647       F  0.46454713  0.84184778  0.85327128    -0.20460
F1648       F  0.49976429  0.80977685  0.89113172    -0.23130
C1649       C  0.29511849  0.00124277  0.89476721    -0.05970
C1650       C  0.30791599  0.96498543  0.89789764    -0.00050
C1651       C  0.29589639  0.94307597  0.92773566    -0.08620
C1652       C  0.27628950  0.95983645  0.95613818    -0.05990
C1653       C  0.26767358  0.99727873  0.95524444    -0.00060
C1654       C  0.27335289  0.01712400  0.92239954    -0.08530
C1655       C  0.25476415  0.05347967  0.91590075     0.61850
H1656       H  0.30285486  0.01719885  0.87088572     0.12550
H1657       H  0.26981258  0.94443618  0.98070210     0.12560
C1658       C  0.30650210  0.90309803  0.93131977     0.62090
F1659       F  0.26535390  0.06941364  0.88308029    -0.23080
F1660       F  0.26248933  0.07766541  0.94366586    -0.20410
F1661       F  0.21763807  0.04769225  0.91496515    -0.20090
F1662       F  0.34370350  0.90075868  0.93424814    -0.20140
F1663       F  0.29491273  0.88381817  0.90088386    -0.20460
F1664       F  0.29126940  0.88663188  0.96196913    -0.23130
C1665       C  0.42179224  0.08074101  0.85388677    -0.05970
C1666       C  0.44594328  0.06114352  0.83184293    -0.00050
C1667       C  0.48017959  0.07715510  0.82327405    -0.08620
C1668       C  0.49130581  0.10935364  0.84205312    -0.05990
C1669       C  0.46890087  0.12568099  0.86854466    -0.00060
C1670       C  0.43209376  0.11376520  0.87088282    -0.08530
C1671       C  0.40354175  0.13351027  0.89322507     0.61850
H1672       H  0.39509421  0.06918152  0.85937865     0.12550
H1673       H  0.51887426  0.11944100  0.83903978     0.12560
C1674       C  0.50568824  0.05888058  0.79645967     0.62090
F1675       F  0.37177029  0.13595617  0.87321828    -0.23080
F1676       F  0.41421330  0.16892359  0.90215533    -0.20410
F1677       F  0.39657498  0.11383863  0.92494529    -0.20090
F1678       F  0.48828928  0.05427427  0.76324337    -0.20140
F1679       F  0.51602972  0.02497113  0.80982218    -0.20460
F1680       F  0.53669179  0.07980532  0.79046404    -0.23130
loop_ 
_geom_bond_atom_site_label_1 
_geom_bond_atom_site_label_2 
_geom_bond_distance 
_geom_bond_site_symmetry_2 
_ccdc_geom_bond_type 
Fe1          O17   2.082       .  S
Fe1           O7   2.003       .  S
Fe1          O14   2.048       .  S
Fe1           O6   2.081   1_565  S
Fe1          O12   1.918       .  S
Fe2           O5   2.114       .  S
Fe2           O9   2.071       .  S
Fe2          O13   2.123       .  S
Fe2          O18   2.035       .  S
Fe2          O12   1.932       .  S
Fe3          O21   2.072       .  S
Fe3           O8   2.102       .  S
Fe3          O15   2.115       .  S
Fe3           O4   2.082   1_565  S
Fe3          O12   1.972       .  S
O4           C11   1.272       .  A
O5           C19   1.280       .  A
O6           C11   1.272       .  A
O7           C10   1.259       .  A
O8           C20   1.278       .  A
O9           C22   1.268       .  A
C10          O15   1.276       .  A
C10        C1618   1.468       .  S
C11        C1666   1.486       .  S
O13          C16   1.280       .  A
O14          C16   1.267       .  A
C16        C1650   1.488       .  S
O17          C22   1.269       .  A
O18          C20   1.265       .  A
C19          O21   1.272       .  A
C19        C1602   1.502       .  S
C20        C1586   1.462       .  S
C22        C1634   1.481       .  S
Fe23         O39   2.059       .  S
Fe23         O29   2.041       .  S
Fe23         O36   2.045       .  S
Fe23         O28   2.064       .  S
Fe23         O34   1.955       .  S
Fe24         O27   2.039       .  S
Fe24         O31   2.094       .  S
Fe24         O35   2.060       .  S
Fe24         O40   2.070       .  S
Fe24         O34   1.972       .  S
Fe25         O43   2.103       .  S
Fe25         O30   2.045       .  S
Fe25         O37   2.084       .  S
Fe25         O26   2.111       .  S
Fe25         O34   1.975       .  S
O26          C33   1.280       .  A
O27          C41   1.268       .  A
O28          C33   1.275       .  A
O29          C32   1.258       .  A
O30          C42   1.261       .  A
O31          C44   1.275       .  A
C32          O37   1.266       .  A
C32        C1570   1.479       .  S
C33        C1637   1.486   1_554  S
O35          C38   1.263       .  A
O36          C38   1.258       .  A
C38        C1541   1.482       .  S
O39          C44   1.272       .  A
O40          C42   1.268       .  A
C41          O43   1.282       .  A
C41        C1506   1.487       .  S
C42        C1525   1.479       .  S
C44        C1554   1.483       .  S
Fe45         O61   2.072       .  S
Fe45         O51   2.023   1_545  S
Fe45         O58   2.036       .  S
Fe45         O50   2.073       .  S
Fe45         O56   1.930       .  S
Fe46         O49   2.100       .  S
Fe46         O53   2.082       .  S
Fe46         O57   2.129       .  S
Fe46         O62   2.031       .  S
Fe46         O56   1.954       .  S
Fe47         O65   2.064       .  S
Fe47         O52   2.081       .  S
Fe47         O59   2.106   1_545  S
Fe47         O48   2.084       .  S
Fe47         O56   1.968       .  S
O48          C55   1.264   1_554  A
O49          C63   1.277       .  A
O50          C55   1.265   1_554  A
O51          C54   1.270       .  A
O52          C64   1.276       .  A
O53          C66   1.264       .  A
C54          O59   1.281       .  A
C54        C1538   1.457       .  S
C55        C1653   1.487   1_545  S
O57          C60   1.286       .  A
O58          C60   1.272       .  A
C60        C1493   1.489       .  S
O61          C66   1.264       .  A
O62          C64   1.265       .  A
C63          O65   1.268       .  A
C63        C1461   1.488       .  S
C64        C1442   1.480       .  S
C66        C1474   1.489       .  S
Fe67         O83   2.039   1_545  S
Fe67         O73   2.075   1_545  S
Fe67         O80   2.079       .  S
Fe67         O72   2.033       .  S
Fe67         O78   1.933       .  S
Fe68         O71   2.028       .  S
Fe68         O75   2.098       .  S
Fe68         O79   2.068       .  S
Fe68         O84   2.073       .  S
Fe68         O78   1.957       .  S
Fe69         O87   2.134       .  S
Fe69         O74   2.054       .  S
Fe69         O81   2.089   1_545  S
Fe69         O70   2.137       .  S
Fe69         O78   1.967       .  S
O70          C77   1.283       .  A
O71          C85   1.266       .  A
O72          C77   1.269       .  A
O73          C76   1.270       .  A
O74          C86   1.266       .  A
O75          C88   1.273       .  A
C76          O81   1.271       .  A
C76        C1557   1.486       .  S
C77        C1477   1.500       .  S
O79          C82   1.266       .  A
O80          C82   1.273       .  A
C82        C1413   1.477       .  S
O83          C88   1.264   1_565  A
O84          C86   1.269       .  A
C85          O87   1.285       .  A
C85        C1381   1.506       .  S
C86        C1394   1.489       .  S
C88        C1426   1.494   1_545  S
Fe89        O105   2.065       .  S
Fe89         O95   2.016   1_556  S
Fe89        O102   2.026       .  S
Fe89         O94   2.049       .  S
Fe89        O100   1.956       .  S
Fe90         O93   2.104       .  S
Fe90         O97   2.060       .  S
Fe90        O101   2.137       .  S
Fe90        O106   2.018       .  S
Fe90        O100   1.965       .  S
Fe91        O109   2.033       .  S
Fe91         O96   2.117   1_554  S
Fe91        O103   2.107       .  S
Fe91         O92   2.061       .  S
Fe91        O100   1.986   1_554  S
O92          C99   1.260       .  A
O93         C107   1.275       .  A
O94          C99   1.261   1_556  A
O95          C98   1.267       .  A
O96         C108   1.279       .  A
O97         C110   1.261       .  A
C98         O103   1.282       .  A
C98        C1410   1.472       .  S
C99        C1490   1.472       .  S
O101        C104   1.285       .  A
O102        C104   1.266       .  A
C104       C1669   1.496       .  S
O105        C110   1.265       .  A
O106        C108   1.268       .  A
C107        O109   1.258   1_556  A
C107       C1346   1.488       .  S
C108       C1333   1.499       .  S
C110       C1362   1.480       .  S
Fe111       O127   2.047       .  S
Fe111       O117   2.022       .  S
Fe111       O124   2.063   1_554  S
Fe111       O116   2.022   1_554  S
Fe111       O122   1.930   1_554  S
Fe112       O115   2.005       .  S
Fe112       O119   2.122       .  S
Fe112       O123   2.056       .  S
Fe112       O128   2.060       .  S
Fe112       O122   1.936       .  S
Fe113       O131   2.132       .  S
Fe113       O118   2.051   1_554  S
Fe113       O125   2.085       .  S
Fe113       O114   2.144   1_554  S
Fe113       O122   1.958   1_554  S
O114        C121   1.291   1_565  A
O115        C129   1.263       .  A
O116        C121   1.272   1_565  A
O117        C120   1.257       .  A
O118        C130   1.259       .  A
O119        C132   1.284   1_556  A
C120        O125   1.263       .  A
C120       C1429   1.475       .  S
C121       C1365   1.500       .  S
O123        C126   1.260       .  A
O124        C126   1.258       .  A
C126       C1621   1.483       .  S
O127        C132   1.267       .  A
O128        C130   1.269       .  A
C129        O131   1.291   1_556  A
C129       C1298   1.489   1_556  S
C130       C1314   1.488       .  S
C132       C1573   1.490       .  S
Fe133       O149   2.068   1_554  S
Fe133       O139   2.045       .  S
Fe133       O146   2.044       .  S
Fe133       O138   2.063       .  S
Fe133       O144   1.933   1_554  S
Fe134       O137   2.109       .  S
Fe134       O141   2.071       .  S
Fe134       O145   2.114       .  S
Fe134       O150   2.056       .  S
Fe134       O144   1.953       .  S
Fe135       O153   2.035   1_554  S
Fe135       O140   2.097       .  S
Fe135       O147   2.097   1_554  S
Fe135       O136   2.099       .  S
Fe135       O144   1.961   1_554  S
O136        C143   1.266       .  A
O137        C151   1.274       .  A
O138        C143   1.265       .  A
O139        C142   1.275   1_554  A
O140        C152   1.290       .  A
O141        C154   1.266       .  A
C142        O147   1.275       .  A
C142       C1234   1.488       .  S
C143       C1282   1.497       .  S
O145        C148   1.279   1_556  A
O146        C148   1.266       .  A
C148       C1269   1.494       .  S
O149        C154   1.273       .  A
O150        C152   1.276   1_556  A
C151        O153   1.253       .  A
C151       C1218   1.506       .  S
C152       C1349   1.476       .  S
C154       C1250   1.507       .  S
Fe155       O171   2.044       .  S
Fe155       O161   2.079       .  S
Fe155       O168   2.087       .  S
Fe155       O160   2.010   1_455  S
Fe155       O166   1.902       .  S
Fe156       O159   2.025       .  S
Fe156       O163   2.105       .  S
Fe156       O167   2.066       .  S
Fe156       O172   2.089       .  S
Fe156       O166   1.924       .  S
Fe157       O175   2.123       .  S
Fe157       O162   2.068   1_455  S
Fe157       O169   2.072       .  S
Fe157       O158   2.141   1_455  S
Fe157       O166   1.964       .  S
O158        C165   1.279       .  A
O159        C173   1.261       .  A
O160        C165   1.250       .  A
O161        C164   1.272       .  A
O162        C174   1.270   1_655  A
O163        C176   1.275       .  A
C164        O169   1.271       .  A
C164       C1205   1.477   1_455  S
C165       C1253   1.478       .  S
O167        C170   1.267       .  A
O168        C170   1.272       .  A
C170       C1173   1.481       .  S
O171        C176   1.268       .  A
O172        C174   1.278       .  A
C173        O175   1.282       .  A
C173       C1138   1.466       .  S
C174       C1154   1.498       .  S
C176       C1186   1.491       .  S
Fe177       O193   2.008       .  S
Fe177       O183   2.061       .  S
Fe177       O190   2.091       .  S
Fe177       O182   2.010       .  S
Fe177       O188   1.893       .  S
Fe178       O181   2.032       .  S
Fe178       O185   2.147       .  S
Fe178       O189   2.065       .  S
Fe178       O194   2.104       .  S
Fe178       O188   1.941       .  S
Fe179       O197   2.109       .  S
Fe179       O184   2.050       .  S
Fe179       O191   2.063       .  S
Fe179       O180   2.140       .  S
Fe179       O188   1.939       .  S
O180        C187   1.286       .  A
O181        C195   1.266       .  A
O182        C187   1.261       .  A
O183        C186   1.266   1_554  A
O184        C196   1.267       .  A
O185        C198   1.280       .  A
C186        O191   1.264   1_556  A
C186       C1189   1.469       .  S
C187       C1090   1.473       .  S
O189        C192   1.267       .  A
O190        C192   1.273       .  A
C192       C1106   1.483       .  S
O193        C198   1.253       .  A
O194        C196   1.281       .  A
C195        O197   1.285       .  A
C195       C1522   1.488       .  S
C196       C1074   1.491       .  S
C198       C1122   1.482       .  S
Fe199       O215   2.077   1_655  S
Fe199       O205   2.011   1_655  S
Fe199       O212   2.012       .  S
Fe199       O204   2.064       .  S
Fe199       O210   1.901   1_655  S
Fe200       O203   2.089       .  S
Fe200       O207   2.046       .  S
Fe200       O211   2.147       .  S
Fe200       O216   2.038       .  S
Fe200       O210   1.932       .  S
Fe201       O219   2.027   1_655  S
Fe201       O206   2.140       .  S
Fe201       O213   2.128       .  S
Fe201       O202   2.098       .  S
Fe201       O210   1.933   1_655  S
O202        C209   1.273       .  A
O203        C217   1.278       .  A
O204        C209   1.264       .  A
O205        C208   1.265   1_554  A
O206        C218   1.287   1_655  A
O207        C220   1.254       .  A
C208        O213   1.285   1_456  A
C208       C1170   1.464       .  S
C209       C1266   1.483       .  S
O211        C214   1.287   1_455  A
O212        C214   1.259       .  A
C214       C1058   1.484       .  S
O215        C220   1.267       .  A
O216        C218   1.265       .  A
C217        O219   1.260       .  A
C217       C1445   1.476       .  S
C218       C1042   1.488       .  S
C220       C1093   1.481       .  S
Fe221       O237   2.065       .  S
Fe221       O227   2.069       .  S
Fe221       O234   2.036       .  S
Fe221       O226   2.034       .  S
Fe221       O232   1.923       .  S
Fe222       O225   2.078       .  S
Fe222       O229   2.083       .  S
Fe222       O233   2.102       .  S
Fe222       O238   2.058       .  S
Fe222       O232   1.946       .  S
Fe223       O241   2.055       .  S
Fe223       O228   2.103       .  S
Fe223       O235   2.090       .  S
Fe223       O224   2.106       .  S
Fe223       O232   1.978       .  S
O224        C231   1.264       .  A
O225        C239   1.270       .  A
O226        C231   1.254       .  A
O227        C230   1.271       .  A
O228        C240   1.284       .  A
O229        C242   1.275       .  A
C230        O235   1.278       .  A
C230       C1109   1.488   1_655  S
C231       C1061   1.487       .  S
O233        C236   1.271       .  A
O234        C236   1.260       .  A
C236       C1285   1.479       .  S
O237        C242   1.272       .  A
O238        C240   1.274       .  A
C239        O241   1.267       .  A
C239       C1013   1.487       .  S
C240        C994   1.485       .  S
C242       C1029   1.485       .  S
Fe243       O259   2.044       .  S
Fe243       O249   2.033   1_556  S
Fe243       O256   2.036       .  S
Fe243       O248   2.022   1_556  S
Fe243       O254   1.888       .  S
Fe244       O247   2.011       .  S
Fe244       O251   2.127       .  S
Fe244       O255   2.095       .  S
Fe244       O260   2.096       .  S
Fe244       O254   1.919       .  S
Fe245       O263   2.135       .  S
Fe245       O250   2.035   1_556  S
Fe245       O257   2.087       .  S
Fe245       O246   2.145   1_556  S
Fe245       O254   1.940       .  S
O246        C253   1.290       .  A
O247        C261   1.254       .  A
O248        C253   1.269       .  A
O249        C252   1.262   1_654  A
O250        C262   1.264   1_554  A
O251        C264   1.283       .  A
C252        O257   1.267   1_455  A
C252       C1125   1.475   1_556  S
C253       C1026   1.472       .  S
O255        C258   1.265       .  A
O256        C258   1.254       .  A
C258       C1237   1.493       .  S
O259        C264   1.272       .  A
O260        C262   1.279       .  A
C261        O263   1.286       .  A
C261        C981   1.496       .  S
C262       C1301   1.476       .  S
C264       C1202   1.491       .  S
Fe265       O281   2.063       .  S
Fe265       O271   2.051       .  S
Fe265       O278   2.057       .  S
Fe265       O270   2.053       .  S
Fe265       O276   1.957       .  S
Fe266       O269   2.080       .  S
Fe266       O273   2.061       .  S
Fe266       O277   2.095       .  S
Fe266       O282   2.048       .  S
Fe266       O276   1.973       .  S
Fe267       O285   2.046       .  S
Fe267       O272   2.082       .  S
Fe267       O279   2.079       .  S
Fe267       O268   2.068       .  S
Fe267       O276   1.987       .  S
O268        C275   1.263   1_655  A
O269        C283   1.275       .  A
O270        C275   1.265   1_655  A
O271        C274   1.271       .  A
O272        C284   1.274       .  A
O273        C286   1.261       .  A
C274        O279   1.273       .  A
C274        C914   1.464       .  S
C275        C962   1.473       .  S
O277        C280   1.277       .  A
O278        C280   1.273       .  A
C280        C949   1.484       .  S
O281        C286   1.264       .  A
O282        C284   1.266       .  A
C283        O285   1.260       .  A
C283        C898   1.495       .  S
C284       C1010   1.476       .  S
C286        C930   1.475       .  S
Fe287       O303   2.055       .  S
Fe287       O293   2.067       .  S
Fe287       O300   2.081       .  S
Fe287       O292   2.023   1_545  S
Fe287       O298   1.934       .  S
Fe288       O291   2.036       .  S
Fe288       O295   2.130       .  S
Fe288       O299   2.050       .  S
Fe288       O304   2.114       .  S
Fe288       O298   1.944       .  S
Fe289       O307   2.143       .  S
Fe289       O294   2.038       .  S
Fe289       O301   2.076       .  S
Fe289       O290   2.132   1_545  S
Fe289       O298   1.973       .  S
O290        C297   1.282       .  A
O291        C305   1.262       .  A
O292        C297   1.264       .  A
O293        C296   1.272       .  A
O294        C306   1.263       .  A
O295        C308   1.281       .  A
C296        O301   1.270       .  A
C296        C885   1.480       .  S
C297        C933   1.486       .  S
O299        C302   1.264       .  A
O300        C302   1.271       .  A
C302        C853   1.477       .  S
O303        C308   1.271       .  A
O304        C306   1.280       .  A
C305        O307   1.285       .  A
C305        C834   1.492       .  S
C306       C1378   1.484       .  S
C308        C866   1.510       .  S
Fe309       O325   2.078       .  S
Fe309       O315   2.032   1_455  S
Fe309       O322   2.034       .  S
Fe309       O314   2.045   1_545  S
Fe309       O320   1.943       .  S
Fe310       O313   2.089       .  S
Fe310       O317   2.070       .  S
Fe310       O321   2.110       .  S
Fe310       O326   2.038       .  S
Fe310       O320   1.953       .  S
Fe311       O329   2.049   1_655  S
Fe311       O316   2.112   1_645  S
Fe311       O323   2.098       .  S
Fe311       O312   2.110   1_545  S
Fe311       O320   1.964   1_655  S
O312        C319   1.278       .  A
O313        C327   1.278       .  A
O314        C319   1.269   1_455  A
O315        C318   1.257       .  A
O316        C328   1.281   1_565  A
O317        C330   1.268       .  A
C318        O323   1.269       .  A
C318        C850   1.473       .  S
C319        C946   1.490       .  S
O321        C324   1.275       .  A
O322        C324   1.256       .  A
C324        C818   1.500   1_545  S
O325        C330   1.273       .  A
O326        C328   1.264       .  A
C327        O329   1.267       .  A
C327       C1045   1.473       .  S
C328       C1458   1.484   1_545  S
C330        C805   1.482       .  S
Fe331       O347   2.013       .  S
Fe331       O337   2.060       .  S
Fe331       O344   2.097   1_655  S
Fe331       O336   2.003   1_655  S
Fe331       O342   1.889   1_655  S
Fe332       O335   2.031       .  S
Fe332       O339   2.148       .  S
Fe332       O343   2.071       .  S
Fe332       O348   2.109       .  S
Fe332       O342   1.946       .  S
Fe333       O351   2.143   1_655  S
Fe333       O338   2.042   1_655  S
Fe333       O345   2.106       .  S
Fe333       O334   2.143   1_655  S
Fe333       O342   1.935   1_655  S
O334        C341   1.290       .  A
O335        C349   1.261       .  A
O336        C341   1.269       .  A
O337        C340   1.261       .  A
O338        C350   1.266       .  A
O339        C352   1.278   1_455  A
C340        O345   1.272       .  A
C340        C869   1.490       .  S
C341        C802   1.479       .  S
O343        C346   1.265       .  A
O344        C346   1.273       .  A
C346        C770   1.498       .  S
O347        C352   1.250       .  A
O348        C350   1.280       .  A
C349        O351   1.288       .  A
C349       C1157   1.501       .  S
C350        C757   1.479       .  S
C352        C786   1.478       .  S
Fe353       O369   2.064       .  S
Fe353       O359   2.054       .  S
Fe353       O366   2.010       .  S
Fe353       O358   2.041       .  S
Fe353       O364   1.902       .  S
Fe354       O357   2.058       .  S
Fe354       O361   2.081       .  S
Fe354       O365   2.095       .  S
Fe354       O370   2.052       .  S
Fe354       O364   1.938       .  S
Fe355       O373   2.065       .  S
Fe355       O360   2.102       .  S
Fe355       O367   2.125       .  S
Fe355       O356   2.130       .  S
Fe355       O364   1.972       .  S
O356        C363   1.270       .  A
O357        C371   1.265       .  A
O358        C363   1.256       .  A
O359        C362   1.257   1_565  A
O360        C372   1.287       .  A
O361        C374   1.276       .  A
C362        O367   1.280   1_545  A
C362        C773   1.512       .  S
C363        C821   1.492       .  S
O365        C368   1.265       .  A
O366        C368   1.251       .  A
C368        C965   1.471       .  S
O369        C374   1.283       .  A
O370        C372   1.277       .  A
C371        O373   1.266       .  A
C371       C1589   1.474       .  S
C372        C725   1.480       .  S
C374        C741   1.499       .  S
Fe375       O391   2.056       .  S
Fe375       O381   2.040       .  S
Fe375       O388   2.061       .  S
Fe375       O380   2.030       .  S
Fe375       O386   1.911       .  S
Fe376       O379   2.029       .  S
Fe376       O383   2.117       .  S
Fe376       O387   2.060       .  S
Fe376       O392   2.095       .  S
Fe376       O386   1.931       .  S
Fe377       O395   2.135       .  S
Fe377       O382   2.045       .  S
Fe377       O389   2.083   1_565  S
Fe377       O378   2.129       .  S
Fe377       O386   1.989       .  S
O378        C385   1.277       .  A
O379        C393   1.256       .  A
O380        C385   1.259       .  A
O381        C384   1.273   1_565  A
O382        C394   1.266       .  A
O383        C396   1.279       .  A
C384        O389   1.273       .  A
C384        C789   1.492       .  S
C385        C738   1.479   1_655  S
O387        C390   1.263       .  A
O388        C390   1.266       .  A
C390        C917   1.469       .  S
O391        C396   1.270       .  A
O392        C394   1.283       .  A
C393        O395   1.279       .  A
C393       C1317   1.484       .  S
C394        C978   1.489       .  S
C396        C882   1.502       .  S
Fe397       O413   2.067       .  S
Fe397       O403   2.048       .  S
Fe397       O410   2.052       .  S
Fe397       O402   2.066       .  S
Fe397       O408   1.962       .  S
Fe398       O401   2.093       .  S
Fe398       O405   2.060       .  S
Fe398       O409   2.119       .  S
Fe398       O414   2.024       .  S
Fe398       O408   1.972       .  S
Fe399       O417   2.045       .  S
Fe399       O404   2.128       .  S
Fe399       O411   2.123       .  S
Fe399       O400   2.092       .  S
Fe399       O408   1.987       .  S
O400        C407   1.269       .  A
O401        C415   1.277       .  A
O402        C407   1.265       .  A
O403        C406   1.272       .  A
O404        C416   1.280       .  A
O405        C418   1.259       .  A
C406        O411   1.282       .  A
C406        C658   1.493       .  S
C407        C706   1.489       .  S
O409        C412   1.284       .  A
O410        C412   1.273       .  A
C412        C690   1.499       .  S
O413        C418   1.263       .  A
O414        C416   1.262       .  A
C415        O417   1.267       .  A
C415        C722   1.485       .  S
C416       C1605   1.511       .  S
C418        C674   1.483       .  S
Fe419       O435   2.032       .  S
Fe419       O425   2.078       .  S
Fe419       O432   2.115       .  S
Fe419       O424   2.023       .  S
Fe419       O430   1.886       .  S
Fe420       O423   2.014       .  S
Fe420       O427   2.112       .  S
Fe420       O431   2.054       .  S
Fe420       O436   2.125       .  S
Fe420       O430   1.908       .  S
Fe421       O439   2.170       .  S
Fe421       O426   2.040       .  S
Fe421       O433   2.073       .  S
Fe421       O422   2.170       .  S
Fe421       O430   1.947       .  S
O422        C429   1.291       .  A
O423        C437   1.246       .  A
O424        C429   1.259       .  A
O425        C428   1.273       .  A
O426        C438   1.267       .  A
O427        C440   1.277       .  A
C428        O433   1.270       .  A
C428        C642   1.479       .  S
C429        C613   1.500       .  S
O431        C434   1.266       .  A
O432        C434   1.280       .  A
C434        C661   1.479       .  S
O435        C440   1.258       .  A
O436        C438   1.283       .  A
C437        O439   1.287       .  A
C437       C1077   1.501       .  S
C438       C1509   1.478       .  S
C440        C629   1.465       .  S
Fe441       O457   2.082       .  S
Fe441       O447   2.056       .  S
Fe441       O454   2.045       .  S
Fe441       O446   2.046       .  S
Fe441       O452   1.921       .  S
Fe442       O445   2.095       .  S
Fe442       O449   2.084       .  S
Fe442       O453   2.098       .  S
Fe442       O458   2.065       .  S
Fe442       O452   1.933       .  S
Fe443       O461   2.056       .  S
Fe443       O448   2.092       .  S
Fe443       O455   2.099       .  S
Fe443       O444   2.123       .  S
Fe443       O452   1.961       .  S
O444        C451   1.273       .  A
O445        C459   1.271       .  A
O446        C451   1.260       .  A
O447        C450   1.269       .  A
O448        C460   1.288       .  A
O449        C462   1.272       .  A
C450        O455   1.272       .  A
C450        C578   1.487       .  S
C451        C594   1.498       .  S
O453        C456   1.275       .  A
O454        C456   1.264       .  A
C456        C709   1.479       .  S
O457        C462   1.278       .  A
O458        C460   1.278       .  A
C459        O461   1.263       .  A
C459        C997   1.505       .  S
C460        C901   1.483       .  S
C462        C610   1.504       .  S
Fe463       O479   2.046       .  S
Fe463       O469   2.075       .  S
Fe463       O476   2.057       .  S
Fe463       O468   2.008       .  S
Fe463       O474   1.888       .  S
Fe464       O467   2.035       .  S
Fe464       O471   2.127       .  S
Fe464       O475   2.089       .  S
Fe464       O480   2.083       .  S
Fe464       O474   1.915       .  S
Fe465       O483   2.113       .  S
Fe465       O470   2.074       .  S
Fe465       O477   2.077       .  S
Fe465       O466   2.132       .  S
Fe465       O474   1.966       .  S
O466        C473   1.276       .  A
O467        C481   1.271       .  A
O468        C473   1.247       .  A
O469        C472   1.270       .  A
O470        C482   1.270       .  A
O471        C484   1.281       .  A
C472        O477   1.272       .  A
C472        C562   1.478       .  S
C473        C546   1.469       .  S
O475        C478   1.268       .  A
O476        C478   1.265       .  A
C478        C581   1.492       .  S
O479        C484   1.269       .  A
O480        C482   1.278       .  A
C481        O483   1.281       .  A
C481       C1397   1.488       .  S
C482        C837   1.508       .  S
C484        C645   1.484       .  S
Fe485       O501   2.053       .  S
Fe485       O491   2.053       .  S
Fe485       O498   2.033       .  S
Fe485       O490   2.034       .  S
Fe485       O496   1.929       .  S
Fe486       O489   2.064       .  S
Fe486       O493   2.097       .  S
Fe486       O497   2.098       .  S
Fe486       O502   2.082       .  S
Fe486       O496   1.968       .  S
Fe487       O505   2.091       .  S
Fe487       O492   2.043       .  S
Fe487       O499   2.098       .  S
Fe487       O488   2.101       .  S
Fe487       O496   1.970       .  S
O488        C495   1.275       .  A
O489        C503   1.277       .  A
O490        C495   1.268       .  A
O491        C494   1.261       .  A
O492        C504   1.260       .  A
O493        C506   1.273       .  A
C494        O499   1.269       .  A
C494        C626   1.483       .  S
C495        C677   1.485       .  S
O497        C500   1.272       .  A
O498        C500   1.264       .  A
C500        C533   1.484       .  S
O501        C506   1.265       .  A
O502        C504   1.269       .  A
C503        O505   1.285       .  A
C503        C754   1.480       .  S
C504       C1141   1.470       .  S
C506        C565   1.483       .  S
Fe507       O523   2.062       .  S
Fe507       O513   2.069       .  S
Fe507       O520   2.051       .  S
Fe507       O512   2.035       .  S
Fe507       O518   1.925       .  S
Fe508       O511   2.081       .  S
Fe508       O515   2.096       .  S
Fe508       O519   2.094       .  S
Fe508       O524   2.063       .  S
Fe508       O518   1.934       .  S
Fe509       O527   2.080       .  S
Fe509       O514   2.100       .  S
Fe509       O521   2.106       .  S
Fe509       O510   2.135       .  S
Fe509       O518   1.965       .  S
O510        C517   1.277       .  A
O511        C525   1.273       .  A
O512        C517   1.262       .  A
O513        C516   1.267       .  A
O514        C526   1.287       .  A
O515        C528   1.275       .  A
C516        O521   1.273       .  A
C516        C530   1.494       .  S
C517        C693   1.504       .  S
O519        C522   1.272       .  A
O520        C522   1.264       .  A
C522        C597   1.483       .  S
O523        C528   1.274       .  A
O524        C526   1.275       .  A
C525        O527   1.269       .  A
C525       C1330   1.512       .  S
C526       C1221   1.486       .  S
C528        C549   1.495       .  S
C529        C530   1.397       .  A
C529        C534   1.384       .  A
C529        H536   1.082       .  S
C530        C531   1.422       .  A
C531        C532   1.428       .  A
C531        C538   1.512       .  S
C532        C533   1.412       .  A
C532        H537   1.082       .  S
C533        C534   1.411       .  A
C534        C535   1.515       .  S
C535        F539   1.384       .  S
C535        F540   1.377       .  S
C535        F541   1.370       .  S
C538        F542   1.383       .  S
C538        F543   1.383       .  S
C538        F544   1.384       .  S
C545        C546   1.394       .  A
C545        C550   1.409       .  A
C545        H552   1.083       .  S
C546        C547   1.422       .  A
C547        C548   1.398       .  A
C547        C554   1.533       .  S
C548        C549   1.401       .  A
C548        H553   1.083       .  S
C549        C550   1.425       .  A
C550        C551   1.502       .  S
C551        F555   1.385       .  S
C551        F556   1.381       .  S
C551        F557   1.381       .  S
C554        F558   1.381       .  S
C554        F559   1.370       .  S
C554        F560   1.385       .  S
C561        C562   1.402       .  A
C561        C566   1.406       .  A
C561        H568   1.085       .  S
C562        C563   1.409       .  A
C563        C564   1.413       .  A
C563        C570   1.513       .  S
C564        C565   1.409       .  A
C564        H569   1.083       .  S
C565        C566   1.422       .  A
C566        C567   1.520       .  S
C567        F571   1.383       .  S
C567        F572   1.380       .  S
C567        F573   1.384       .  S
C570        F574   1.384       .  S
C570        F575   1.383       .  S
C570        F576   1.384       .  S
C577        C578   1.395       .  A
C577        C582   1.371       .  A
C577        H584   1.084       .  S
C578        C579   1.421       .  A
C579        C580   1.428       .  A
C579        C586   1.512       .  S
C580        C581   1.416       .  A
C580        H585   1.082       .  S
C581        C582   1.415       .  A
C582        C583   1.514       .  S
C583        F587   1.387       .  S
C583        F588   1.373       .  S
C583        F589   1.378       .  S
C586        F590   1.383       .  S
C586        F591   1.383       .  S
C586        F592   1.384       .  S
C593        C594   1.412       .  A
C593        C598   1.417       .  A
C593        H600   1.083       .  S
C594        C595   1.420       .  A
C595        C596   1.405       .  A
C595        C602   1.512       .  S
C596        C597   1.401       .  A
C596        H601   1.085       .  S
C597        C598   1.413       .  A
C598        C599   1.515       .  S
C599        F603   1.384       .  S
C599        F604   1.384       .  S
C599        F605   1.383       .  S
C602        F606   1.381       .  S
C602        F607   1.384       .  S
C602        F608   1.385       .  S
C609        C610   1.400       .  A
C609        C614   1.402       .  A
C609        H616   1.082       .  S
C610        C611   1.426       .  A
C611        C612   1.420       .  A
C611        C618   1.514       .  S
C612        C613   1.405       .  A
C612        H617   1.083       .  S
C613        C614   1.432       .  A
C614        C615   1.528       .  S
C615        F619   1.385       .  S
C615        F620   1.379       .  S
C615        F621   1.383       .  S
C618        F622   1.380       .  S
C618        F623   1.382       .  S
C618        F624   1.385       .  S
C625        C626   1.407       .  A
C625        C630   1.417       .  A
C625        H632   1.083       .  S
C626        C627   1.420       .  A
C627        C628   1.387       .  A
C627        C634   1.507       .  S
C628        C629   1.386       .  A
C628        H633   1.077       .  S
C629        C630   1.416       .  A
C630        C631   1.513       .  S
C631        F635   1.384       .  S
C631        F636   1.381       .  S
C631        F637   1.383       .  S
C634        F638   1.380       .  S
C634        F639   1.371       .  S
C634        F640   1.386       .  S
C641        C642   1.398       .  A
C641        C646   1.398       .  A
C641        H648   1.084       .  S
C642        C643   1.412       .  A
C643        C644   1.416       .  A
C643        C650   1.512       .  S
C644        C645   1.409       .  A
C644        H649   1.083       .  S
C645        C646   1.420       .  A
C646        C647   1.514       .  S
C647        F651   1.385       .  S
C647        F652   1.381       .  S
C647        F653   1.377       .  S
C650        F654   1.384       .  S
C650        F655   1.381       .  S
C650        F656   1.384       .  S
C657        C658   1.408       .  A
C657        C662   1.407       .  A
C657        H664   1.084       .  S
C658        C659   1.422       .  A
C659        C660   1.408       .  A
C659        C666   1.508       .  S
C660        C661   1.398       .  A
C660        H665   1.085       .  S
C661        C662   1.409       .  A
C662        C663   1.514       .  S
C663        F667   1.384       .  S
C663        F668   1.373       .  S
C663        F669   1.383       .  S
C666        F670   1.379       .  S
C666        F671   1.377       .  S
C666        F672   1.383       .  S
C673        C674   1.411       .  A
C673        C678   1.420       .  A
C673        H680   1.083       .  S
C674        C675   1.417       .  A
C675        C676   1.397       .  A
C675        C682   1.522       .  S
C676        C677   1.404       .  A
C676        H681   1.084       .  S
C677        C678   1.415       .  A
C678        C679   1.517       .  S
C679        F683   1.384       .  S
C679        F684   1.383       .  S
C679        F685   1.379       .  S
C682        F686   1.381       .  S
C682        F687   1.382       .  S
C682        F688   1.385       .  S
C689        C690   1.407       .  A
C689        C694   1.419       .  A
C689        H696   1.083       .  S
C690        C691   1.421       .  A
C691        C692   1.404       .  A
C691        C698   1.519       .  S
C692        C693   1.406       .  A
C692        H697   1.084       .  S
C693        C694   1.425       .  A
C694        C695   1.516       .  S
C695        F699   1.385       .  S
C695        F700   1.384       .  S
C695        F701   1.382       .  S
C698        F702   1.383       .  S
C698        F703   1.384       .  S
C698        F704   1.383       .  S
C705        C706   1.401       .  A
C705        C710   1.413       .  A
C705        H712   1.082       .  S
C706        C707   1.415       .  A
C707        C708   1.406       .  A
C707        C714   1.502       .  S
C708        C709   1.395       .  A
C708        H713   1.084       .  S
C709        C710   1.421       .  A
C710        C711   1.515       .  S
C711        F715   1.382       .  S
C711        F716   1.382       .  S
C711        F717   1.380       .  S
C714        F718   1.383       .  S
C714        F719   1.382       .  S
C714        F720   1.385       .  S
C721        C722   1.409       .  A
C721        C726   1.406       .  A
C721        H728   1.083       .  S
C722        C723   1.414       .  A
C723        C724   1.408       .  A
C723        C730   1.518       .  S
C724        C725   1.410       .  A
C724        H729   1.084       .  S
C725        C726   1.414       .  A
C726        C727   1.520       .  S
C727        F731   1.385       .  S
C727        F732   1.382       .  S
C727        F733   1.383       .  S
C730        F734   1.382       .  S
C730        F735   1.384       .  S
C730        F736   1.385       .  S
C737        C738   1.400       .  A
C737        C742   1.417       .  A
C737        H744   1.083       .  S
C738        C739   1.416       .  A
C739        C740   1.395       .  A
C739        C746   1.514       .  S
C740        C741   1.401       .  A
C740        H745   1.081       .  S
C741        C742   1.431       .  A
C742        C743   1.519       .  S
C743        F747   1.385       .  S
C743        F748   1.384       .  S
C743        F749   1.381       .  S
C746        F750   1.378   1_565  S
C746        F751   1.381   1_455  S
C746        F752   1.384   1_565  S
C753        C754   1.400       .  A
C753        C758   1.409       .  A
C753        H760   1.083       .  S
C754        C755   1.419       .  A
C755        C756   1.404       .  A
C755        C762   1.516       .  S
C756        C757   1.400       .  A
C756        H761   1.085       .  S
C757        C758   1.422       .  A
C758        C759   1.520       .  S
C759        F763   1.385       .  S
C759        F764   1.383       .  S
C759        F765   1.382       .  S
C762        F766   1.383       .  S
C762        F767   1.383       .  S
C762        F768   1.384       .  S
C769        C770   1.395       .  A
C769        C774   1.399       .  A
C769        H776   1.083       .  S
C770        C771   1.421       .  A
C771        C772   1.424       .  A
C771        C778   1.515       .  S
C772        C773   1.412       .  A
C772        H777   1.082       .  S
C773        C774   1.439       .  A
C774        C775   1.529       .  S
C775        F779   1.385       .  S
C775        F780   1.384   1_545  S
C775        F781   1.382       .  S
C778        F782   1.383       .  S
C778        F783   1.383       .  S
C778        F784   1.384       .  S
C785        C786   1.413       .  A
C785        C790   1.427       .  A
C785        H792   1.081   1_655  S
C786        C787   1.418       .  A
C787        C788   1.378       .  A
C787        C794   1.535       .  S
C788        C789   1.396       .  A
C788        H793   1.058       .  S
C789        C790   1.419       .  A
C790        C791   1.512       .  S
C791        F795   1.384       .  S
C791        F796   1.383       .  S
C791        F797   1.383       .  S
C794        F798   1.377       .  S
C794        F799   1.378       .  S
C794        F800   1.385       .  S
C801        C802   1.402       .  A
C801        C806   1.401       .  A
C801        H808   1.084       .  S
C802        C803   1.412   1_455  A
C803        C804   1.413   1_655  A
C803        C810   1.511       .  S
C804        C805   1.407       .  A
C804        H809   1.083   1_455  S
C805        C806   1.420       .  A
C806        C807   1.522       .  S
C807        F811   1.385       .  S
C807        F812   1.382       .  S
C807        F813   1.380       .  S
C810        F814   1.383       .  S
C810        F815   1.381       .  S
C810        F816   1.383       .  S
C817        C818   1.413       .  A
C817        C822   1.421       .  A
C817        H824   1.083   1_565  S
C818        C819   1.434       .  A
C819        C820   1.389       .  A
C819        C826   1.530       .  S
C820        C821   1.398       .  A
C820        H825   1.080       .  S
C821        C822   1.417       .  A
C822        C823   1.514       .  S
C823        F827   1.384       .  S
C823        F828   1.384       .  S
C823        F829   1.382   1_565  S
C826        F830   1.372       .  S
C826        F831   1.383       .  S
C826        F832   1.386       .  S
C833        C834   1.405       .  A
C833        C838   1.423       .  A
C833        H840   1.083       .  S
C834        C835   1.423       .  A
C835        C836   1.397       .  A
C835        C842   1.522       .  S
C836        C837   1.403       .  A
C836        H841   1.080       .  S
C837        C838   1.430       .  A
C838        C839   1.517       .  S
C839        F843   1.385       .  S
C839        F844   1.383       .  S
C839        F845   1.383       .  S
C842        F846   1.376       .  S
C842        F847   1.381       .  S
C842        F848   1.385       .  S
C849        C850   1.402       .  A
C849        C854   1.400       .  A
C849        H856   1.085       .  S
C850        C851   1.414       .  A
C851        C852   1.410       .  A
C851        C858   1.512       .  S
C852        C853   1.408       .  A
C852        H857   1.085       .  S
C853        C854   1.419       .  A
C854        C855   1.519       .  S
C855        F859   1.384       .  S
C855        F860   1.375       .  S
C855        F861   1.379       .  S
C858        F862   1.383   1_545  S
C858        F863   1.382   1_545  S
C858        F864   1.383       .  S
C865        C866   1.410       .  A
C865        C870   1.407       .  A
C865        H872   1.085       .  S
C866        C867   1.426       .  A
C867        C868   1.421       .  A
C867        C874   1.518       .  S
C868        C869   1.406       .  A
C868        H873   1.082       .  S
C869        C870   1.415       .  A
C870        C871   1.517       .  S
C871        F875   1.383       .  S
C871        F876   1.383       .  S
C871        F877   1.381       .  S
C874        F878   1.383       .  S
C874        F879   1.379       .  S
C874        F880   1.385       .  S
C881        C882   1.410       .  A
C881        C886   1.420       .  A
C881        H888   1.083       .  S
C882        C883   1.427   1_565  A
C883        C884   1.398       .  A
C883        C890   1.503       .  S
C884        C885   1.389       .  A
C884        H889   1.086       .  S
C885        C886   1.415   1_545  A
C886        C887   1.514       .  S
C887        F891   1.384       .  S
C887        F892   1.378       .  S
C887        F893   1.383       .  S
C890        F894   1.380       .  S
C890        F895   1.382       .  S
C890        F896   1.385       .  S
C897        C898   1.402       .  A
C897        C902   1.397       .  A
C897        H904   1.084       .  S
C898        C899   1.434       .  A
C899        C900   1.411       .  A
C899        C906   1.521       .  S
C900        C901   1.398       .  A
C900        H905   1.083       .  S
C901        C902   1.419       .  A
C902        C903   1.515       .  S
C903        F907   1.385       .  S
C903        F908   1.380       .  S
C903        F909   1.383       .  S
C906        F910   1.383       .  S
C906        F911   1.379       .  S
C906        F912   1.385       .  S
C913        C914   1.398       .  A
C913        C918   1.403       .  A
C913        H920   1.084       .  S
C914        C915   1.414       .  A
C915        C916   1.407       .  A
C915        C922   1.516       .  S
C916        C917   1.400       .  A
C916        H921   1.083       .  S
C917        C918   1.415       .  A
C918        C919   1.514       .  S
C919        F923   1.384       .  S
C919        F924   1.384       .  S
C919        F925   1.380       .  S
C922        F926   1.383       .  S
C922        F927   1.381       .  S
C922        F928   1.384       .  S
C929        C930   1.401       .  A
C929        C934   1.410       .  A
C929        H936   1.081       .  S
C930        C931   1.413       .  A
C931        C932   1.405       .  A
C931        C938   1.519       .  S
C932        C933   1.407       .  A
C932        H937   1.084       .  S
C933        C934   1.417       .  A
C934        C935   1.510       .  S
C935        F939   1.385       .  S
C935        F940   1.382       .  S
C935        F941   1.382       .  S
C938        F942   1.383       .  S
C938        F943   1.383       .  S
C938        F944   1.384       .  S
C945        C946   1.404   1_455  A
C945        C950   1.402       .  A
C945        H952   1.084       .  S
C946        C947   1.421       .  A
C947        C948   1.414       .  A
C947        C954   1.513       .  S
C948        C949   1.403       .  A
C948        H953   1.083       .  S
C949        C950   1.416   1_655  A
C950        C951   1.516       .  S
C951        F955   1.384       .  S
C951        F956   1.383       .  S
C951        F957   1.383       .  S
C954        F958   1.383       .  S
C954        F959   1.380       .  S
C954        F960   1.385       .  S
C961        C962   1.397       .  A
C961        C966   1.396       .  A
C961        H968   1.084       .  S
C962        C963   1.412       .  A
C963        C964   1.416       .  A
C963        C970   1.511       .  S
C964        C965   1.408       .  A
C964        H969   1.083       .  S
C965        C966   1.415       .  A
C966        C967   1.516       .  S
C967        F971   1.381       .  S
C967        F972   1.382       .  S
C967        F973   1.381       .  S
C970        F974   1.380       .  S
C970        F975   1.383       .  S
C970        F976   1.384       .  S
C977        C978   1.395       .  A
C977        C982   1.397       .  A
C977        H984   1.082       .  S
C978        C979   1.424       .  A
C979        C980   1.414       .  A
C979        C986   1.519       .  S
C980        C981   1.405       .  A
C980        H985   1.082       .  S
C981        C982   1.438       .  A
C982        C983   1.532       .  S
C983        F987   1.385       .  S
C983        F988   1.385       .  S
C983        F989   1.384       .  S
C986        F990   1.383       .  S
C986        F991   1.383   1_655  S
C986        F992   1.385       .  S
C993        C994   1.406       .  A
C993        C998   1.409       .  A
C993       H1000   1.084       .  S
C994        C995   1.411       .  A
C995        C996   1.410       .  A
C995       C1002   1.516       .  S
C996        C997   1.416       .  A
C996       H1001   1.082       .  S
C997        C998   1.421       .  A
C998        C999   1.515       .  S
C999       F1003   1.385       .  S
C999       F1004   1.382       .  S
C999       F1005   1.383       .  S
C1002      F1006   1.379       .  S
C1002      F1007   1.383       .  S
C1002      F1008   1.385       .  S
C1009      C1010   1.407       .  A
C1009      C1014   1.410       .  A
C1009      H1016   1.084       .  S
C1010      C1011   1.413       .  A
C1011      C1012   1.401       .  A
C1011      C1018   1.516       .  S
C1012      C1013   1.405       .  A
C1012      H1017   1.078       .  S
C1013      C1014   1.417       .  A
C1014      C1015   1.517       .  S
C1015      F1019   1.385       .  S
C1015      F1020   1.382       .  S
C1015      F1021   1.384       .  S
C1018      F1022   1.381       .  S
C1018      F1023   1.382       .  S
C1018      F1024   1.385       .  S
C1025      C1026   1.403       .  A
C1025      C1030   1.410       .  A
C1025      H1032   1.084       .  S
C1026      C1027   1.414       .  A
C1027      C1028   1.407       .  A
C1027      C1034   1.518       .  S
C1028      C1029   1.405       .  A
C1028      H1033   1.083       .  S
C1029      C1030   1.420       .  A
C1030      C1031   1.520       .  S
C1031      F1035   1.385   1_655  S
C1031      F1036   1.382       .  S
C1031      F1037   1.383       .  S
C1034      F1038   1.383       .  S
C1034      F1039   1.383       .  S
C1034      F1040   1.385       .  S
C1041      C1042   1.405   1_655  A
C1041      C1046   1.417       .  A
C1041      H1048   1.083       .  S
C1042      C1043   1.426       .  A
C1043      C1044   1.398       .  A
C1043      C1050   1.511       .  S
C1044      C1045   1.389       .  A
C1044      H1049   1.084       .  S
C1045      C1046   1.419   1_455  A
C1046      C1047   1.516       .  S
C1047      F1051   1.384       .  S
C1047      F1052   1.384       .  S
C1047      F1053   1.382       .  S
C1050      F1054   1.380       .  S
C1050      F1055   1.377       .  S
C1050      F1056   1.385       .  S
C1057      C1058   1.408       .  A
C1057      C1062   1.419       .  A
C1057      H1064   1.083       .  S
C1058      C1059   1.426       .  A
C1059      C1060   1.388       .  A
C1059      C1066   1.531       .  S
C1060      C1061   1.400       .  A
C1060      H1065   1.081       .  S
C1061      C1062   1.420       .  A
C1062      C1063   1.515       .  S
C1063      F1067   1.385       .  S
C1063      F1068   1.384       .  S
C1063      F1069   1.382       .  S
C1066      F1070   1.383       .  S
C1066      F1071   1.381       .  S
C1066      F1072   1.385       .  S
C1073      C1074   1.392       .  A
C1073      C1078   1.401       .  A
C1073      H1080   1.083       .  S
C1074      C1075   1.425       .  A
C1075      C1076   1.417       .  A
C1075      C1082   1.518       .  S
C1076      C1077   1.404       .  A
C1076      H1081   1.082       .  S
C1077      C1078   1.439       .  A
C1078      C1079   1.529       .  S
C1079      F1083   1.385       .  S
C1079      F1084   1.381       .  S
C1079      F1085   1.383       .  S
C1082      F1086   1.383       .  S
C1082      F1087   1.383       .  S
C1082      F1088   1.384       .  S
C1089      C1090   1.401       .  A
C1089      C1094   1.414       .  A
C1089      H1096   1.083       .  S
C1090      C1091   1.422       .  A
C1091      C1092   1.393       .  A
C1091      C1098   1.522       .  S
C1092      C1093   1.397       .  A
C1092      H1097   1.083       .  S
C1093      C1094   1.423       .  A
C1094      C1095   1.516       .  S
C1095      F1099   1.385       .  S
C1095      F1100   1.383       .  S
C1095      F1101   1.383       .  S
C1098      F1102   1.375   1_554  S
C1098      F1103   1.381       .  S
C1098      F1104   1.385   1_554  S
C1105      C1106   1.399       .  A
C1105      C1110   1.400       .  A
C1105      H1112   1.084       .  S
C1106      C1107   1.418       .  A
C1107      C1108   1.416       .  A
C1107      C1114   1.515       .  S
C1108      C1109   1.407       .  A
C1108      H1113   1.083       .  S
C1109      C1110   1.422       .  A
C1110      C1111   1.517       .  S
C1111      F1115   1.385       .  S
C1111      F1116   1.382   1_455  S
C1111      F1117   1.382       .  S
C1114      F1118   1.383       .  S
C1114      F1119   1.383       .  S
C1114      F1120   1.385       .  S
C1121      C1122   1.408       .  A
C1121      C1126   1.422       .  A
C1121      H1128   1.083       .  S
C1122      C1123   1.420       .  A
C1123      C1124   1.386   1_554  A
C1123      C1130   1.527       .  S
C1124      C1125   1.398   1_556  A
C1124      H1129   1.087       .  S
C1125      C1126   1.420       .  A
C1126      C1127   1.512       .  S
C1127      F1131   1.384       .  S
C1127      F1132   1.383       .  S
C1127      F1133   1.383       .  S
C1130      F1134   1.386       .  S
C1130      F1135   1.380       .  S
C1130      F1136   1.380   1_554  S
C1137      C1138   1.401       .  A
C1137      C1142   1.401       .  A
C1137      H1144   1.084       .  S
C1138      C1139   1.415       .  A
C1139      C1140   1.409       .  A
C1139      C1146   1.516       .  S
C1140      C1141   1.403       .  A
C1140      H1145   1.083       .  S
C1141      C1142   1.413       .  A
C1142      C1143   1.515       .  S
C1143      F1147   1.385       .  S
C1143      F1148   1.383       .  S
C1143      F1149   1.376       .  S
C1146      F1150   1.382       .  S
C1146      F1151   1.383       .  S
C1146      F1152   1.385       .  S
C1153      C1154   1.399       .  A
C1153      C1158   1.401       .  A
C1153      H1160   1.082       .  S
C1154      C1155   1.425   1_455  A
C1155      C1156   1.418       .  A
C1155      C1162   1.517       .  S
C1156      C1157   1.406   1_655  A
C1156      H1161   1.082       .  S
C1157      C1158   1.434       .  A
C1158      C1159   1.529       .  S
C1159      F1163   1.385       .  S
C1159      F1164   1.382       .  S
C1159      F1165   1.383       .  S
C1162      F1166   1.383       .  S
C1162      F1167   1.383       .  S
C1162      F1168   1.384       .  S
C1169      C1170   1.394   1_655  A
C1169      C1174   1.400       .  A
C1169      H1176   1.082       .  S
C1170      C1171   1.415       .  A
C1171      C1172   1.410       .  A
C1171      C1178   1.516       .  S
C1172      C1173   1.403       .  A
C1172      H1177   1.083       .  S
C1173      C1174   1.421   1_455  A
C1174      C1175   1.511       .  S
C1175      F1179   1.385       .  S
C1175      F1180   1.383       .  S
C1175      F1181   1.381       .  S
C1178      F1182   1.383       .  S
C1178      F1183   1.383       .  S
C1178      F1184   1.384       .  S
C1185      C1186   1.406       .  A
C1185      C1190   1.399       .  A
C1185      H1192   1.078       .  S
C1186      C1187   1.421       .  A
C1187      C1188   1.413       .  A
C1187      C1194   1.516       .  S
C1188      C1189   1.403       .  A
C1188      H1193   1.083       .  S
C1189      C1190   1.407       .  A
C1190      C1191   1.516       .  S
C1191      F1195   1.383       .  S
C1191      F1196   1.384       .  S
C1191      F1197   1.380       .  S
C1194      F1198   1.383       .  S
C1194      F1199   1.383       .  S
C1194      F1200   1.385       .  S
C1201      C1202   1.409       .  A
C1201      C1206   1.407   1_655  A
C1201      H1208   1.083   1_655  S
C1202      C1203   1.422       .  A
C1203      C1204   1.411       .  A
C1203      C1210   1.518       .  S
C1204      C1205   1.403       .  A
C1204      H1209   1.084       .  S
C1205      C1206   1.408   1_655  A
C1206      C1207   1.512       .  S
C1207      F1211   1.384       .  S
C1207      F1212   1.383       .  S
C1207      F1213   1.378       .  S
C1210      F1214   1.383       .  S
C1210      F1215   1.382       .  S
C1210      F1216   1.385       .  S
C1217      C1218   1.405       .  A
C1217      C1222   1.406       .  A
C1217      H1224   1.084       .  S
C1218      C1219   1.440       .  A
C1219      C1220   1.411       .  A
C1219      C1226   1.524       .  S
C1220      C1221   1.395       .  A
C1220      H1225   1.083       .  S
C1221      C1222   1.419       .  A
C1222      C1223   1.516       .  S
C1223      F1227   1.384       .  S
C1223      F1228   1.383       .  S
C1223      F1229   1.382       .  S
C1226      F1230   1.384       .  S
C1226      F1231   1.382       .  S
C1226      F1232   1.385       .  S
C1233      C1234   1.394       .  A
C1233      C1238   1.380       .  A
C1233      H1240   1.082       .  S
C1234      C1235   1.418       .  A
C1235      C1236   1.427       .  A
C1235      C1242   1.512       .  S
C1236      C1237   1.416       .  A
C1236      H1241   1.082       .  S
C1237      C1238   1.425       .  A
C1238      C1239   1.528       .  S
C1239      F1243   1.386   1_556  S
C1239      F1244   1.384   1_556  S
C1239      F1245   1.382       .  S
C1242      F1246   1.381   1_556  S
C1242      F1247   1.383       .  S
C1242      F1248   1.384       .  S
C1249      C1250   1.405       .  A
C1249      C1254   1.399       .  A
C1249      H1256   1.079       .  S
C1250      C1251   1.431       .  A
C1251      C1252   1.418       .  A
C1251      C1258   1.519       .  S
C1252      C1253   1.401       .  A
C1252      H1257   1.083       .  S
C1253      C1254   1.423       .  A
C1254      C1255   1.530       .  S
C1255      F1259   1.377       .  S
C1255      F1260   1.379       .  S
C1255      F1261   1.377       .  S
C1258      F1262   1.383       .  S
C1258      F1263   1.384       .  S
C1258      F1264   1.385       .  S
C1265      C1266   1.400       .  A
C1265      C1270   1.406       .  A
C1265      H1272   1.085       .  S
C1266      C1267   1.418       .  A
C1267      C1268   1.416       .  A
C1267      C1274   1.514   1_554  S
C1268      C1269   1.405       .  A
C1268      H1273   1.083   1_554  S
C1269      C1270   1.423       .  A
C1270      C1271   1.517       .  S
C1271      F1275   1.384       .  S
C1271      F1276   1.384       .  S
C1271      F1277   1.383       .  S
C1274      F1278   1.383   1_556  S
C1274      F1279   1.379       .  S
C1274      F1280   1.384       .  S
C1281      C1282   1.404       .  A
C1281      C1286   1.411       .  A
C1281      H1288   1.083       .  S
C1282      C1283   1.431       .  A
C1283      C1284   1.410       .  A
C1283      C1290   1.516       .  S
C1284      C1285   1.395       .  A
C1284      H1289   1.084       .  S
C1285      C1286   1.415       .  A
C1286      C1287   1.514       .  S
C1287      F1291   1.385       .  S
C1287      F1292   1.383       .  S
C1287      F1293   1.378       .  S
C1290      F1294   1.380       .  S
C1290      F1295   1.377       .  S
C1290      F1296   1.385       .  S
C1297      C1298   1.402       .  A
C1297      C1302   1.410       .  A
C1297      H1304   1.082       .  S
C1298      C1299   1.433       .  A
C1299      C1300   1.398   1_554  A
C1299      C1306   1.522   1_554  S
C1300      C1301   1.392       .  A
C1300      H1305   1.085       .  S
C1301      C1302   1.422   1_556  A
C1302      C1303   1.519       .  S
C1303      F1307   1.385       .  S
C1303      F1308   1.383   1_554  S
C1303      F1309   1.382       .  S
C1306      F1310   1.384       .  S
C1306      F1311   1.380   1_556  S
C1306      F1312   1.385   1_556  S
C1313      C1314   1.397       .  A
C1313      C1318   1.394       .  A
C1313      H1320   1.082       .  S
C1314      C1315   1.425       .  A
C1315      C1316   1.418       .  A
C1315      C1322   1.517   1_565  S
C1316      C1317   1.404       .  A
C1316      H1321   1.083   1_565  S
C1317      C1318   1.423       .  A
C1318      C1319   1.517       .  S
C1319      F1323   1.385       .  S
C1319      F1324   1.378       .  S
C1319      F1325   1.381       .  S
C1322      F1326   1.382       .  S
C1322      F1327   1.384       .  S
C1322      F1328   1.384       .  S
C1329      C1330   1.420       .  A
C1329      C1334   1.420       .  A
C1329      H1336   1.082       .  S
C1330      C1331   1.423       .  A
C1331      C1332   1.396       .  A
C1331      C1338   1.512       .  S
C1332      C1333   1.403       .  A
C1332      H1337   1.083       .  S
C1333      C1334   1.416       .  A
C1334      C1335   1.517       .  S
C1335      F1339   1.384       .  S
C1335      F1340   1.378       .  S
C1335      F1341   1.383       .  S
C1338      F1342   1.384       .  S
C1338      F1343   1.367       .  S
C1338      F1344   1.385       .  S
C1345      C1346   1.401   1_554  A
C1345      C1350   1.408       .  A
C1345      H1352   1.084       .  S
C1346      C1347   1.426   1_556  A
C1347      C1348   1.406       .  A
C1347      C1354   1.518   1_554  S
C1348      C1349   1.396       .  A
C1348      H1353   1.083       .  S
C1349      C1350   1.422       .  A
C1350      C1351   1.516       .  S
C1351      F1355   1.384       .  S
C1351      F1356   1.383       .  S
C1351      F1357   1.383   1_554  S
C1354      F1358   1.382   1_556  S
C1354      F1359   1.383       .  S
C1354      F1360   1.385       .  S
C1361      C1362   1.406       .  A
C1361      C1366   1.416       .  A
C1361      H1368   1.083       .  S
C1362      C1363   1.412       .  A
C1363      C1364   1.398       .  A
C1363      C1370   1.520       .  S
C1364      C1365   1.410       .  A
C1364      H1369   1.083       .  S
C1365      C1366   1.418       .  A
C1366      C1367   1.509       .  S
C1367      F1371   1.385       .  S
C1367      F1372   1.384       .  S
C1367      F1373   1.375   1_556  S
C1370      F1374   1.381       .  S
C1370      F1375   1.383       .  S
C1370      F1376   1.382       .  S
C1377      C1378   1.406       .  A
C1377      C1382   1.412       .  A
C1377      H1384   1.083       .  S
C1378      C1379   1.407       .  A
C1379      C1380   1.410       .  A
C1379      C1386   1.518       .  S
C1380      C1381   1.419       .  A
C1380      H1385   1.082       .  S
C1381      C1382   1.424       .  A
C1382      C1383   1.519       .  S
C1383      F1387   1.385       .  S
C1383      F1388   1.383   1_545  S
C1383      F1389   1.383       .  S
C1386      F1390   1.383   1_545  S
C1386      F1391   1.383       .  S
C1386      F1392   1.384       .  S
C1393      C1394   1.410       .  A
C1393      C1398   1.412       .  A
C1393      H1400   1.083       .  S
C1394      C1395   1.418       .  A
C1395      C1396   1.395       .  A
C1395      C1402   1.518       .  S
C1396      C1397   1.406       .  A
C1396      H1401   1.082       .  S
C1397      C1398   1.418       .  A
C1398      C1399   1.518       .  S
C1399      F1403   1.385       .  S
C1399      F1404   1.383       .  S
C1399      F1405   1.383       .  S
C1402      F1406   1.375       .  S
C1402      F1407   1.383       .  S
C1402      F1408   1.385       .  S
C1409      C1410   1.398       .  A
C1409      C1414   1.410       .  A
C1409      H1416   1.083       .  S
C1410      C1411   1.419       .  A
C1411      C1412   1.395       .  A
C1411      C1418   1.518       .  S
C1412      C1413   1.398       .  A
C1412      H1417   1.085       .  S
C1413      C1414   1.421       .  A
C1414      C1415   1.510       .  S
C1415      F1419   1.385       .  S
C1415      F1420   1.379       .  S
C1415      F1421   1.383       .  S
C1418      F1422   1.384       .  S
C1418      F1423   1.383       .  S
C1418      F1424   1.384       .  S
C1425      C1426   1.412   1_545  A
C1425      C1430   1.414   1_545  A
C1425      H1432   1.083       .  S
C1426      C1427   1.424       .  A
C1427      C1428   1.398       .  A
C1427      C1434   1.514       .  S
C1428      C1429   1.392       .  A
C1428      H1433   1.077       .  S
C1429      C1430   1.409       .  A
C1430      C1431   1.510   1_565  S
C1431      F1435   1.384       .  S
C1431      F1436   1.376       .  S
C1431      F1437   1.383       .  S
C1434      F1438   1.385       .  S
C1434      F1439   1.381       .  S
C1434      F1440   1.385       .  S
C1441      C1442   1.401       .  A
C1441      C1446   1.404       .  A
C1441      H1448   1.082       .  S
C1442      C1443   1.422       .  A
C1443      C1444   1.398       .  A
C1443      C1450   1.518       .  S
C1444      C1445   1.398       .  A
C1444      H1449   1.085       .  S
C1445      C1446   1.424       .  A
C1446      C1447   1.522       .  S
C1447      F1451   1.385       .  S
C1447      F1452   1.383   1_554  S
C1447      F1453   1.383       .  S
C1450      F1454   1.383       .  S
C1450      F1455   1.383       .  S
C1450      F1456   1.385       .  S
C1457      C1458   1.403   1_545  A
C1457      C1462   1.411       .  A
C1457      H1464   1.083       .  S
C1458      C1459   1.421       .  A
C1459      C1460   1.414       .  A
C1459      C1466   1.517       .  S
C1460      C1461   1.403   1_565  A
C1460      H1465   1.083       .  S
C1461      C1462   1.420       .  A
C1462      C1463   1.520       .  S
C1463      F1467   1.385       .  S
C1463      F1468   1.382       .  S
C1463      F1469   1.383       .  S
C1466      F1470   1.383       .  S
C1466      F1471   1.382       .  S
C1466      F1472   1.385       .  S
C1473      C1474   1.405       .  A
C1473      C1478   1.419       .  A
C1473      H1480   1.083       .  S
C1474      C1475   1.415       .  A
C1475      C1476   1.401       .  A
C1475      C1482   1.514       .  S
C1476      C1477   1.405       .  A
C1476      H1481   1.084       .  S
C1477      C1478   1.421       .  A
C1478      C1479   1.508   1_545  S
C1479      F1483   1.385       .  S
C1479      F1484   1.383   1_565  S
C1479      F1485   1.370       .  S
C1482      F1486   1.382       .  S
C1482      F1487   1.381       .  S
C1482      F1488   1.385       .  S
C1489      C1490   1.395   1_556  A
C1489      C1494   1.399   1_556  A
C1489      H1496   1.084       .  S
C1490      C1491   1.417       .  A
C1491      C1492   1.411       .  A
C1491      C1498   1.516       .  S
C1492      C1493   1.403       .  A
C1492      H1497   1.078       .  S
C1493      C1494   1.418       .  A
C1494      C1495   1.507   1_554  S
C1495      F1499   1.384       .  S
C1495      F1500   1.384       .  S
C1495      F1501   1.383       .  S
C1498      F1502   1.382       .  S
C1498      F1503   1.382       .  S
C1498      F1504   1.384       .  S
C1505      C1506   1.402       .  A
C1505      C1510   1.408       .  A
C1505      H1512   1.082       .  S
C1506      C1507   1.423       .  A
C1507      C1508   1.406       .  A
C1507      C1514   1.518       .  S
C1508      C1509   1.399       .  A
C1508      H1513   1.085       .  S
C1509      C1510   1.420       .  A
C1510      C1511   1.518       .  S
C1511      F1515   1.385       .  S
C1511      F1516   1.382       .  S
C1511      F1517   1.382       .  S
C1514      F1518   1.383       .  S
C1514      F1519   1.384       .  S
C1514      F1520   1.385       .  S
C1521      C1522   1.403       .  A
C1521      C1526   1.403       .  A
C1521      H1528   1.081       .  S
C1522      C1523   1.427       .  A
C1523      C1524   1.406       .  A
C1523      C1530   1.521       .  S
C1524      C1525   1.400       .  A
C1524      H1529   1.084       .  S
C1525      C1526   1.420       .  A
C1526      C1527   1.520       .  S
C1527      F1531   1.385       .  S
C1527      F1532   1.381       .  S
C1527      F1533   1.382       .  S
C1530      F1534   1.383       .  S
C1530      F1535   1.384       .  S
C1530      F1536   1.385       .  S
C1537      C1538   1.394       .  A
C1537      C1542   1.393       .  A
C1537      H1544   1.083       .  S
C1538      C1539   1.406       .  A
C1539      C1540   1.410       .  A
C1539      C1546   1.515       .  S
C1540      C1541   1.413       .  A
C1540      H1545   1.083       .  S
C1541      C1542   1.427       .  A
C1542      C1543   1.525       .  S
C1543      F1547   1.384       .  S
C1543      F1548   1.376       .  S
C1543      F1549   1.383       .  S
C1546      F1550   1.383       .  S
C1546      F1551   1.384       .  S
C1546      F1552   1.384       .  S
C1553      C1554   1.405       .  A
C1553      C1558   1.408       .  A
C1553      H1560   1.084       .  S
C1554      C1555   1.416       .  A
C1555      C1556   1.408       .  A
C1555      C1562   1.518       .  S
C1556      C1557   1.399       .  A
C1556      H1561   1.070       .  S
C1557      C1558   1.411       .  A
C1558      C1559   1.507       .  S
C1559      F1563   1.383       .  S
C1559      F1564   1.383       .  S
C1559      F1565   1.378       .  S
C1562      F1566   1.383       .  S
C1562      F1567   1.383       .  S
C1562      F1568   1.384       .  S
C1569      C1570   1.399       .  A
C1569      C1574   1.414       .  A
C1569      H1576   1.083       .  S
C1570      C1571   1.415       .  A
C1571      C1572   1.400       .  A
C1571      C1578   1.504   1_554  S
C1572      C1573   1.398       .  A
C1572      H1577   1.083   1_554  S
C1573      C1574   1.425       .  A
C1574      C1575   1.516       .  S
C1575      F1579   1.385       .  S
C1575      F1580   1.374       .  S
C1575      F1581   1.380       .  S
C1578      F1582   1.382       .  S
C1578      F1583   1.383       .  S
C1578      F1584   1.385       .  S
C1585      C1586   1.396       .  A
C1585      C1590   1.394       .  A
C1585      H1592   1.084       .  S
C1586      C1587   1.409       .  A
C1587      C1588   1.412       .  A
C1587      C1594   1.513   1_565  S
C1588      C1589   1.408       .  A
C1588      H1593   1.083       .  S
C1589      C1590   1.420       .  A
C1590      C1591   1.521       .  S
C1591      F1595   1.385       .  S
C1591      F1596   1.376       .  S
C1591      F1597   1.382       .  S
C1594      F1598   1.383       .  S
C1594      F1599   1.384       .  S
C1594      F1600   1.384       .  S
C1601      C1602   1.412       .  A
C1601      C1606   1.422       .  A
C1601      H1608   1.083       .  S
C1602      C1603   1.416       .  A
C1603      C1604   1.408       .  A
C1603      C1610   1.519       .  S
C1604      C1605   1.414       .  A
C1604      H1609   1.082       .  S
C1605      C1606   1.421       .  A
C1606      C1607   1.516       .  S
C1607      F1611   1.384       .  S
C1607      F1612   1.383       .  S
C1607      F1613   1.383       .  S
C1610      F1614   1.382       .  S
C1610      F1615   1.378       .  S
C1610      F1616   1.385       .  S
C1617      C1618   1.399       .  A
C1617      C1622   1.391       .  A
C1617      H1624   1.084       .  S
C1618      C1619   1.408       .  A
C1619      C1620   1.412       .  A
C1619      C1626   1.514       .  S
C1620      C1621   1.415       .  A
C1620      H1625   1.083       .  S
C1621      C1622   1.424       .  A
C1622      C1623   1.528       .  S
C1623      F1627   1.385       .  S
C1623      F1628   1.378       .  S
C1623      F1629   1.384       .  S
C1626      F1630   1.383       .  S
C1626      F1631   1.384       .  S
C1626      F1632   1.384       .  S
C1633      C1634   1.406       .  A
C1633      C1638   1.413       .  A
C1633      H1640   1.081       .  S
C1634      C1635   1.416       .  A
C1635      C1636   1.406       .  A
C1635      C1642   1.518       .  S
C1636      C1637   1.399       .  A
C1636      H1641   1.073       .  S
C1637      C1638   1.415       .  A
C1638      C1639   1.519       .  S
C1639      F1643   1.385       .  S
C1639      F1644   1.381   1_556  S
C1639      F1645   1.383       .  S
C1642      F1646   1.382       .  S
C1642      F1647   1.379       .  S
C1642      F1648   1.384       .  S
C1649      C1650   1.408   1_545  A
C1649      C1654   1.415       .  A
C1649      H1656   1.083       .  S
C1650      C1651   1.417       .  A
C1651      C1652   1.406       .  A
C1651      C1658   1.514       .  S
C1652      C1653   1.401       .  A
C1652      H1657   1.082       .  S
C1653      C1654   1.413   1_565  A
C1654      C1655   1.512       .  S
C1655      F1659   1.385       .  S
C1655      F1660   1.373       .  S
C1655      F1661   1.383       .  S
C1658      F1662   1.378       .  S
C1658      F1663   1.383       .  S
C1658      F1664   1.385       .  S
C1665      C1666   1.399       .  A
C1665      C1670   1.404       .  A
C1665      H1672   1.085       .  S
C1666      C1667   1.419       .  A
C1667      C1668   1.417       .  A
C1667      C1674   1.514       .  S
C1668      C1669   1.406       .  A
C1668      H1673   1.083       .  S
C1669      C1670   1.423       .  A
C1670      C1671   1.516       .  S
C1671      F1675   1.384       .  S
C1671      F1676   1.384       .  S
C1671      F1677   1.383       .  S
C1674      F1678   1.383       .  S
C1674      F1679   1.382       .  S
C1674      F1680   1.385       .  S
