geometry optimzed in LAMMPS
_audit_creation_date              2020-12-01 
_audit_creation_method            'lammps2cif' 
_symmetry_space_group_name_H-M    'P1' 
_symmetry_Int_Tables_number       1 
_symmetry_cell_setting            triclinic 
loop_ 
_symmetry_equiv_pos_as_xyz 
  x,y,z 
_cell_length_a                    35.97007979 
_cell_length_b                    36.14526593202813 
_cell_length_c                    96.65133705004618 
_cell_angle_alpha                 90.39672241411348 
_cell_angle_beta                  89.62236012052679 
_cell_angle_gamma                 123.52407618318324 
loop_ 
_atom_site_label 
_atom_site_type_symbol 
_atom_site_fract_x 
_atom_site_fract_y 
_atom_site_fract_z 
_atom_site_charge 
C1          C  0.81961622  0.00091982  0.12086726     0.86400
C2          C  0.79240718  0.96593497  0.13222186    -0.53800
C3          C  0.81792136  0.96373124  0.14214328     0.09300
C4          C  0.86815843  0.99609905  0.13976246     0.20300
C5          C  0.85133013  0.04513004  0.12859049    -0.54500
C6          C  0.87680467  0.04231756  0.13843625     0.09400
C7          C  0.85082117  0.98690183  0.11530737    -0.54100
C8          C  0.87609657  0.98433720  0.12524461     0.10000
H9          H  0.75650621  0.94258753  0.13184350     0.14500
H10         H  0.88930859  0.99510433  0.14784951     0.00300
H11         H  0.85552889  0.07627249  0.12580193     0.14800
H12         H  0.85108398  0.97669867  0.10476369     0.14600
C13         C  0.05325300  0.91266174  0.11187044     0.86400
C14         C  0.08833837  0.95370158  0.12029526    -0.53800
C15         C  0.07127489  0.96342744  0.13127443     0.09300
C16         C  0.02100446  0.93077347  0.13304046     0.20300
C17         C  0.02782519  0.87413674  0.12230327    -0.54500
C18         C  0.01145044  0.88398407  0.13344343     0.09400
C19         C  0.01806093  0.92310205  0.10798068    -0.54100
C20         C  0.00121338  0.93253780  0.11922718     0.10000
H21         H  0.12269300  0.97581987  0.11691388     0.14500
H22         H  0.00788505  0.93834025  0.14223678     0.00300
H23         H  0.02022296  0.84098163  0.12044778     0.14800
H24         H  0.00568105  0.92111111  0.09764139     0.14600
C25         C  0.83944363  0.94880721  0.86031409     0.86400
C26         C  0.85086772  0.98561605  0.84968256    -0.53800
C27         C  0.87934556  0.99010851  0.83945231     0.09300
C28         C  0.89394029  0.95782068  0.84071252     0.20300
C29         C  0.82266486  0.90603856  0.85163678    -0.54500
C30         C  0.85163098  0.91131699  0.84136457     0.09400
C31         C  0.88599070  0.96164234  0.86553812    -0.54100
C32         C  0.91420489  0.96650192  0.85518426     0.10000
H33         H  0.83962328  0.00789167  0.85069208     0.14500
H34         H  0.91711387  0.96143872  0.83234918     0.00300
H35         H  0.79194306  0.87439452  0.85381799     0.14800
H36         H  0.89773637  0.96916927  0.87607962     0.14600
C37         C  0.17356268  0.04604115  0.85873345     0.86400
C38         C  0.15940946  0.00689852  0.84877800    -0.53800
C39         C  0.13063201  0.00182323  0.83876095     0.09300
C40         C  0.11937498  0.03688037  0.83930375     0.20300
C41         C  0.19256494  0.08754328  0.84938182    -0.54500
C42         C  0.16384564  0.08250864  0.83922917     0.09400
C43         C  0.12912709  0.03818739  0.86413924    -0.54100
C44         C  0.10052764  0.03291028  0.85392172     0.10000
H45         H  0.16794868  0.98272788  0.85036689     0.14500
H46         H  0.09645957  0.03203390  0.83085060     0.00300
H47         H  0.22351902  0.11921003  0.85119044     0.14800
H48         H  0.12088223  0.03640239  0.87504585     0.14600
N49         N  0.50148218  0.91948935  0.05708945    -0.27400
N50         N  0.49159674  0.89638411  0.04549732    -0.35200
C51         C  0.44898704  0.87889513  0.04222261     0.01000
C52         C  0.43017615  0.89139025  0.05210441     0.07000
C53         C  0.46438889  0.91718833  0.06151060    -0.06100
H54         H  0.43363847  0.86029663  0.03282823     0.07700
H55         H  0.46286619  0.93422976  0.07052161     0.08900
Cu56       Cu  0.53624326  0.89536360  0.03256582     0.44200
Cu57       Cu  0.56697294  0.95285792  0.06484276     0.42000
Cu58       Cu  0.64869589  0.96375479  0.03730871     0.43900
N59         N  0.57967138  0.91001679  0.01654586    -0.34800
N60         N  0.62315023  0.93765045  0.01782848    -0.29000
C61         C  0.64216210  0.94442758  0.00519659    -0.05100
C62         C  0.60835502  0.91978599  0.99563132     0.07100
C63         C  0.56937255  0.89851344  0.00325618     0.00900
H64         H  0.67743374  0.96670800  0.00307814     0.08600
H65         H  0.53566898  0.87765505  0.99939664     0.07600
N66         N  0.66119533  0.97648656  0.05840464    -0.36200
N67         N  0.63373230  0.97346378  0.06820251    -0.28400
C68         C  0.65466105  0.98202491  0.08051063    -0.03600
C69         C  0.69727767  0.99072092  0.07843800     0.05000
C70         C  0.69946253  0.98648742  0.06419684     0.03100
H71         H  0.63917818  0.98045990  0.09030412     0.08200
H72         H  0.72588307  0.98868388  0.05816739     0.07000
N73         N  0.54133384  0.93984286  0.91588192    -0.27400
N74         N  0.52136018  0.91316333  0.92654031    -0.35200
C75         C  0.48018211  0.90429662  0.92796958     0.01000
C76         C  0.47350255  0.92678851  0.91786703     0.07000
C77         C  0.51301823  0.94916877  0.91031240    -0.06100
H78         H  0.45800996  0.88545117  0.93644425     0.07700
H79         H  0.52099243  0.97142632  0.90172079     0.08900
Cu80       Cu  0.55265432  0.89831093  0.94109150     0.44200
Cu81       Cu  0.60657920  0.96106166  0.91043568     0.42000
Cu82       Cu  0.66787222  0.95328278  0.94002682     0.43900
N83         N  0.58953536  0.90857179  0.95859092    -0.34800
N84         N  0.63349936  0.93218112  0.95861479    -0.29000
C85         C  0.64789341  0.93921205  0.97182713    -0.05100
C86         C  0.61076262  0.91880778  0.98042942     0.07100
C87         C  0.57450044  0.89968269  0.97164538     0.00900
H88         H  0.68253153  0.95867140  0.97491651     0.08600
H89         H  0.53969433  0.88273585  0.97450673     0.07600
N90         N  0.68579141  0.95805133  0.91934777    -0.36200
N91         N  0.66500994  0.96168640  0.90872202    -0.28400
C92         C  0.68432984  0.95994016  0.89694842    -0.03600
C93         C  0.71870943  0.95462053  0.90027919     0.05000
C94         C  0.71818197  0.95342702  0.91462840     0.03100
H95         H  0.67323240  0.96120332  0.88669557     0.08200
H96         H  0.73806856  0.94728177  0.92133309     0.07000
N97         N  0.32385056  0.88323980  0.05345324    -0.27400
N98         N  0.32178689  0.86530832  0.04130045    -0.35200
C99         C  0.35794415  0.86401342  0.03951591     0.01000
C100        C  0.38489279  0.88239938  0.05101975     0.07000
C101        C  0.36217371  0.89419230  0.05975932    -0.06100
H102        H  0.36544266  0.85334234  0.03002681     0.07700
H103        H  0.37349329  0.91111349  0.06961887     0.08900
Cu104      Cu  0.27716480  0.85382372  0.02596042     0.44200
Cu105      Cu  0.27452273  0.89409223  0.05922480     0.42000
Cu106      Cu  0.21027412  0.89711893  0.02966134     0.43900
N107        N  0.25120971  0.86756307  0.00937045    -0.34800
N108        N  0.22865798  0.88639690  0.01053135    -0.29000
C109        C  0.22329167  0.89804249  0.99785921    -0.05100
C110        C  0.24345221  0.88561537  0.98834974     0.07100
C111        C  0.26064310  0.86634858  0.99601297     0.00900
H112        H  0.20752836  0.91569353  0.99581113     0.08600
H113        H  0.28126524  0.85512873  0.99230230     0.07600
N114        N  0.19510385  0.89753066  0.05030629    -0.36200
N115        N  0.21793634  0.89665318  0.06083165    -0.28400
C116        C  0.19766362  0.89591452  0.07264554    -0.03600
C117        C  0.16016387  0.89623011  0.06949639     0.05000
C118        C  0.15975947  0.89712509  0.05515968     0.03100
H119        H  0.20976365  0.89543103  0.08280661     0.08200
H120        H  0.13524946  0.89647643  0.04857921     0.07000
N121        N  0.39201269  0.95670829  0.91563376    -0.27400
N122        N  0.37158076  0.92199407  0.92393175    -0.35200
C123        C  0.39610604  0.90470081  0.92503128     0.01000
C124        C  0.43427920  0.92972657  0.91715567     0.07000
C125        C  0.43055175  0.96238665  0.91120271    -0.06100
H126        H  0.38830304  0.87798482  0.93198517     0.07700
H127        H  0.45535299  0.98996076  0.90497892     0.08900
Cu128      Cu  0.31788459  0.90550172  0.93638655     0.44200
Cu129      Cu  0.36671937  0.99581263  0.91246068     0.42000
Cu130      Cu  0.27970018  0.97587937  0.93819973     0.43900
N131        N  0.27985844  0.90410962  0.95265269    -0.34800
N132        N  0.26596756  0.93101621  0.95363858    -0.29000
C133        C  0.24786584  0.92666806  0.96624937    -0.05100
C134        C  0.25129949  0.89585344  0.97354260     0.07100
C135        C  0.27159498  0.88221782  0.96459138     0.00900
H136        H  0.23622277  0.94672033  0.97012763     0.08600
H137        H  0.28241336  0.86032830  0.96687920     0.07600
N138        N  0.29442069  0.01151960  0.92014837    -0.36200
N139        N  0.32514375  0.01905739  0.91088647    -0.28400
C140        C  0.31907511  0.03630618  0.89947399    -0.03600
C141        C  0.28266792  0.03921434  0.90166362     0.05000
C142        C  0.26818174  0.02343166  0.91487770     0.03100
H143        H  0.33655265  0.04152311  0.88979029     0.08200
H144        H  0.23805147  0.01695452  0.91980931     0.07000
C145        C  0.95015694  0.82456286  0.78582280     0.86400
C146        C  0.98714925  0.83573809  0.79633311    -0.53800
C147        C  0.99352223  0.86574368  0.80615936     0.09300
C148        C  0.96240833  0.88184211  0.80473722     0.20300
C149        C  0.90789022  0.80991870  0.79473235    -0.54500
C150        C  0.91499578  0.84051944  0.80463170     0.09400
C151        C  0.96320687  0.87018241  0.78000554    -0.54100
C152        C  0.97070272  0.90043739  0.79000481     0.10000
H153        H  0.00841619  0.82317404  0.79550127     0.14500
H154        H  0.96747119  0.90613464  0.81286388     0.00300
H155        H  0.87524482  0.77992979  0.79305152     0.14800
H156        H  0.96893502  0.87868528  0.76911225     0.14600
C157        C  0.06231962  0.16173820  0.78501096     0.86400
C158        C  0.02144288  0.14694470  0.79432420    -0.53800
C159        C  0.01477107  0.11761120  0.80433032     0.09300
C160        C  0.04968903  0.10594467  0.80431941     0.20300
C161        C  0.10239317  0.17937067  0.79500709    -0.54500
C162        C  0.09565096  0.15000690  0.80511789     0.09400
C163        C  0.05495322  0.11771241  0.77948008    -0.54100
C164        C  0.04767355  0.08820349  0.78963371     0.10000
H165        H  0.99811265  0.15655901  0.79253069     0.14500
H166        H  0.04336867  0.08235735  0.81269504     0.00300
H167        H  0.13475823  0.20985723  0.79344503     0.14800
H168        H  0.05515446  0.11036221  0.76858636     0.14600
N169        N  0.97172398  0.38697293  0.73025016    -0.27400
N170        N  0.94358482  0.36886050  0.71980679    -0.35200
C171        C  0.92519184  0.39174198  0.71737379     0.01000
C172        C  0.94239180  0.42663306  0.72660195     0.07000
C173        C  0.97170710  0.42254545  0.73479318    -0.06100
H174        H  0.90349393  0.38534358  0.70871399     0.07700
H175        H  0.99355455  0.44539836  0.74272816     0.08900
Cu176      Cu  0.93931033  0.32258851  0.70635673     0.44200
Cu177      Cu  0.01100050  0.36256484  0.73562562     0.42000
Cu178      Cu  0.01929714  0.29796297  0.70611769     0.43900
N179        N  0.95151461  0.29787824  0.68900084    -0.34800
N180        N  0.98312649  0.28996120  0.68836474    -0.29000
C181        C  0.98618199  0.27895610  0.67521072    -0.05100
C182        C  0.95490056  0.28045652  0.66731113     0.07100
C183        C  0.93370840  0.29259523  0.67644443     0.00900
H184        H  0.01014812  0.27184537  0.67160581     0.08600
H185        H  0.90844689  0.29904258  0.67407286     0.07600
N186        N  0.04106548  0.30169075  0.72632099    -0.36200
N187        N  0.03866563  0.32421250  0.73680331    -0.28400
C188        C  0.05079222  0.31320623  0.74847638    -0.03600
C189        C  0.06082150  0.28218422  0.74520124     0.05000
C190        C  0.05419277  0.27584145  0.73109589     0.03100
H191        H  0.04845643  0.32381254  0.75875645     0.08200
H192        H  0.05560885  0.25162527  0.72488380     0.07000
N193        N  0.93845828  0.52602238  0.72820726    -0.27400
N194        N  0.91976657  0.50873837  0.71612167    -0.35200
C195        C  0.91749144  0.47083765  0.71414088     0.01000
C196        C  0.93591212  0.46352178  0.72546152     0.07000
C197        C  0.94899013  0.49929118  0.73425116    -0.06100
H198        H  0.90514458  0.45114937  0.70477785     0.07700
H199        H  0.96560238  0.50580602  0.74411297     0.08900
Cu200      Cu  0.90376844  0.53984610  0.70177326     0.44200
Cu201      Cu  0.94880091  0.58641247  0.73458256     0.42000
Cu202      Cu  0.94340574  0.65320139  0.70584568     0.43900
N203        N  0.90276075  0.57751358  0.68601351    -0.34800
N204        N  0.92023530  0.62056510  0.68693530    -0.29000
C205        C  0.92045539  0.63608138  0.67422873    -0.05100
C206        C  0.90184457  0.60065683  0.66500429     0.07100
C207        C  0.89086891  0.56423160  0.67289995     0.00900
H208        H  0.93427346  0.67053668  0.67183154     0.08600
H209        H  0.87809520  0.53094443  0.66923158     0.07600
N210        N  0.95200297  0.67002214  0.72678404    -0.36200
N211        N  0.95169422  0.64558391  0.73702053    -0.28400
C212        C  0.95164546  0.66417550  0.74915830    -0.03600
C213        C  0.95244014  0.70215064  0.74642112     0.05000
C214        C  0.95306564  0.70500150  0.73217509     0.03100
H215        H  0.95054599  0.65072438  0.75923015     0.08200
H216        H  0.95204270  0.72953811  0.72614948     0.07000
C217        C  0.99439213  0.83086603  0.53323997     0.86400
C218        C  0.95455921  0.81591879  0.52331483    -0.53800
C219        C  0.95673013  0.85045746  0.51676271     0.09300
C220        C  0.99780706  0.89593709  0.52066638     0.20300
C221        C  0.03603869  0.85876107  0.52400861    -0.54500
C222        C  0.03746446  0.89254952  0.51729791     0.09400
C223        C  0.99259728  0.86389447  0.54302430    -0.54100
C224        C  0.99422149  0.89789928  0.53641596     0.10000
H225        H  0.92708514  0.78204300  0.52152594     0.14500
H226        H  0.00022650  0.92422394  0.51540738     0.00300
H227        H  0.05974899  0.84972537  0.52192548     0.14800
H228        H  0.98423681  0.85726045  0.55393614     0.14600
C229        C  0.92797940  0.07013896  0.53351663     0.86400
C230        C  0.96397674  0.08240347  0.52238030    -0.53800
C231        C  0.95885203  0.04675278  0.51552585     0.09300
C232        C  0.91757243  0.00216880  0.52023499     0.20300
C233        C  0.88342720  0.04289021  0.52540602    -0.54500
C234        C  0.87841991  0.00729989  0.51854156     0.09400
C235        C  0.92848970  0.03585793  0.54283234    -0.54100
C236        C  0.92367447  0.00066322  0.53586298     0.10000
H237        H  0.99183784  0.11619372  0.52044699     0.14500
H238        H  0.91238348  0.97312389  0.51443888     0.00300
H239        H  0.85878631  0.05102135  0.52445937     0.14800
H240        H  0.93529403  0.04060462  0.55385656     0.14600
N241        N  0.91424957  0.34796347  0.58991093    -0.27400
N242        N  0.89563760  0.33927916  0.60228567    -0.35200
C243        C  0.88262952  0.36694750  0.60494498     0.01000
C244        C  0.89380525  0.39464523  0.59370182     0.07000
C245        C  0.91375748  0.38167759  0.58430170    -0.06100
H246        H  0.86919728  0.36892390  0.61476286     0.07700
H247        H  0.92876980  0.39696585  0.57447254     0.08900
Cu248      Cu  0.89887439  0.29821655  0.61617370     0.44200
Cu249      Cu  0.94255010  0.31515328  0.58263141     0.42000
Cu250      Cu  0.97291597  0.26332211  0.60973054     0.43900
N251        N  0.92438974  0.27943068  0.63157061    -0.34800
N252        N  0.95413553  0.26927488  0.62963352    -0.29000
C253        C  0.96896847  0.26618728  0.64210622    -0.05100
C254        C  0.94736633  0.27506191  0.65225058     0.07100
C255        C  0.91933340  0.28303050  0.64514020     0.00900
H256        H  0.99461968  0.25968698  0.64364097     0.08600
H257        H  0.89866708  0.29344803  0.64943499     0.07600
N258        N  0.97215401  0.25273147  0.58846980    -0.36200
N259        N  0.96032601  0.27055200  0.57896914    -0.28400
C260        C  0.95547841  0.25044120  0.56676132    -0.03600
C261        C  0.96463452  0.21842698  0.56859766     0.05000
C262        C  0.97563526  0.22113816  0.58242399     0.03100
H263        H  0.94363827  0.25701989  0.55743766     0.08200
H264        H  0.98172960  0.19904261  0.58793744     0.07000
N265        N  0.90810542  0.50136529  0.58871653    -0.27400
N266        N  0.88404648  0.48767901  0.60017557    -0.35200
C267        C  0.87318066  0.44668537  0.60317845     0.01000
C268        C  0.89130144  0.43380210  0.59312641     0.07000
C269        C  0.91307321  0.46915149  0.58403715    -0.06100
H270        H  0.85630954  0.42907658  0.61256384     0.07700
H271        H  0.93368160  0.47253936  0.57530137     0.08900
Cu272      Cu  0.87660095  0.52868540  0.61306235     0.44200
Cu273      Cu  0.93817306  0.56592951  0.58178559     0.42000
Cu274      Cu  0.95201792  0.64543312  0.60911018     0.43900
N275        N  0.88968033  0.57341505  0.62860303    -0.34800
N276        N  0.91938984  0.61661167  0.62775193    -0.29000
C277        C  0.92597181  0.63446563  0.64055351    -0.05100
C278        C  0.89930772  0.60042407  0.64978950     0.07100
C279        C  0.87669310  0.56248861  0.64177454     0.00900
H280        H  0.95086686  0.66874555  0.64309196     0.08600
H281        H  0.85529128  0.52870551  0.64539458     0.07600
N282        N  0.97015752  0.66118455  0.58836024    -0.36200
N283        N  0.96374909  0.63251301  0.57853451    -0.28400
C284        C  0.97277070  0.65260062  0.56615387    -0.03600
C285        C  0.98563726  0.69604015  0.56825715     0.05000
C286        C  0.98396518  0.70032698  0.58245040     0.03100
H287        H  0.96846697  0.63613842  0.55634049     0.08200
H288        H  0.98898319  0.72885318  0.58799178     0.07000
C289        C  0.77832711  0.82697936  0.46020868     0.86400
C290        C  0.80075390  0.81397814  0.47097785    -0.53800
C291        C  0.83747225  0.84944325  0.47700917     0.09300
C292        C  0.84732041  0.89434937  0.47226828     0.20300
C293        C  0.76746086  0.85650400  0.46874543    -0.54500
C294        C  0.80405546  0.89172795  0.47500764     0.09400
C295        C  0.81625047  0.85893112  0.45019964    -0.54100
C296        C  0.85224659  0.89423267  0.45653319     0.10000
H297        H  0.78927020  0.77999418  0.47343013     0.14500
H298        H  0.87657800  0.92275361  0.47760681     0.00300
H299        H  0.73420739  0.84867494  0.47079138     0.14800
H300        H  0.81566292  0.85264086  0.43917040     0.14600
C301        C  0.11544335  0.05185344  0.45269604     0.86400
C302        C  0.07149819  0.02289310  0.44459971    -0.53800
C303        C  0.03664971  0.99203470  0.45238645     0.09300
C304        C  0.04821623  0.99296341  0.46761337     0.20300
C305        C  0.10212549  0.07207107  0.46449381    -0.54500
C306        C  0.06671909  0.04073804  0.47228688     0.09400
C307        C  0.12351558  0.01932974  0.46027705    -0.54100
C308        C  0.08824640  0.98876338  0.46821234     0.10000
H309        H  0.06721591  0.02946126  0.43397798     0.14500
H310        H  0.01916793  0.96723505  0.47373237     0.00300
H311        H  0.11812558  0.10713366  0.46656502     0.14800
H312        H  0.15549009  0.02281222  0.46031684     0.14600
N313        N  0.28118840  0.24268719  0.34932458    -0.27400
N314        N  0.32275807  0.26924303  0.34496610    -0.35200
C315        C  0.32280781  0.28367275  0.33222505     0.01000
C316        C  0.27923391  0.26505505  0.32818105     0.07000
C317        C  0.25348327  0.23923432  0.33927330    -0.06100
H318        H  0.35250092  0.30851019  0.32670555     0.07700
H319        H  0.21771090  0.22218884  0.34038288     0.08900
Cu320      Cu  0.37798322  0.29400271  0.35737388     0.44200
Cu321      Cu  0.26660776  0.21914720  0.36963916     0.42000
Cu322      Cu  0.35916191  0.28315610  0.39394536     0.43900
N323        N  0.42591502  0.33471895  0.37162174    -0.34800
N324        N  0.41860662  0.33227735  0.38509436    -0.29000
C325        C  0.45297836  0.36859262  0.39122242    -0.05100
C326        C  0.48310556  0.39513764  0.38104586     0.07100
C327        C  0.46500827  0.37251087  0.36877594     0.00900
H328        H  0.45425931  0.37652369  0.40209402     0.08600
H329        H  0.47724123  0.38438246  0.35842529     0.07600
N330        N  0.29719959  0.22900829  0.39947160    -0.36200
N331        N  0.26416543  0.20481790  0.39069086    -0.28400
C332        C  0.22993568  0.17065587  0.39762909    -0.03600
C333        C  0.24185357  0.17389599  0.41141274     0.05000
C334        C  0.28467941  0.21133937  0.41219273     0.03100
H335        H  0.19848287  0.14550926  0.39301130     0.08200
H336        H  0.30572610  0.22422545  0.42125204     0.07000
N337        N  0.56501150  0.51000675  0.39020449    -0.27400
N338        N  0.57156178  0.51070951  0.37672108    -0.35200
C339        C  0.54540071  0.46948570  0.37161138     0.01000
C340        C  0.52107230  0.44134320  0.38238917     0.07000
C341        C  0.53442453  0.46802650  0.39407071    -0.06100
H342        H  0.54197667  0.46132747  0.36070666     0.07700
H343        H  0.52062219  0.45831287  0.40438997     0.08900
Cu344      Cu  0.60813861  0.56786529  0.36529636     0.44200
Cu345      Cu  0.59196379  0.56742553  0.40189652     0.42000
Cu346      Cu  0.62466552  0.66544063  0.38089668     0.43900
N347        N  0.63106807  0.62545990  0.35449283    -0.34800
N348        N  0.63456313  0.66089355  0.35991584    -0.29000
C349        C  0.64329984  0.68984904  0.34970217    -0.05100
C350        C  0.64619886  0.67180532  0.33738889     0.07100
C351        C  0.63789235  0.63091628  0.34079653     0.00900
H352        H  0.64515526  0.72056948  0.35103739     0.08600
H353        H  0.63334887  0.60545691  0.33369609     0.07600
N354        N  0.62532429  0.66462765  0.40238705    -0.36200
N355        N  0.61633476  0.63012087  0.40990113    -0.28400
C356        C  0.62915333  0.64356882  0.42302285    -0.03600
C357        C  0.64617684  0.68842741  0.42386328     0.05000
C358        C  0.64324772  0.70061770  0.41060641     0.03100
H359        H  0.62915318  0.62298738  0.43109973     0.08200
H360        H  0.65773381  0.73409219  0.40690523     0.07000
C361        C  0.83783438  0.80695642  0.19395863     0.86400
C362        C  0.80572210  0.81492629  0.18609597    -0.53800
C363        C  0.82373256  0.84048392  0.17466269     0.09300
C364        C  0.87197126  0.85542274  0.17197324     0.20300
C365        C  0.85511957  0.78785877  0.18313370    -0.54500
C366        C  0.87336101  0.81386452  0.17163470     0.09400
C367        C  0.87964163  0.85379381  0.19682417    -0.54100
C368        C  0.89716609  0.87961563  0.18528889     0.10000
H369        H  0.77306972  0.80486482  0.19002962     0.14500
H370        H  0.88513967  0.87511271  0.16238272     0.00300
H371        H  0.85864191  0.76044312  0.18507723     0.14800
H372        H  0.89456539  0.86463258  0.20698128     0.14600
C373        C  0.09510357  0.14280621  0.18307423     0.86400
C374        C  0.06330068  0.09484374  0.18836009    -0.53800
C375        C  0.03573165  0.06523593  0.17846342     0.09300
C376        C  0.04277148  0.08654490  0.16417261     0.20300
C377        C  0.11983277  0.13680547  0.17086819    -0.54500
C378        C  0.09219071  0.10705628  0.16103074     0.09400
C379        C  0.06398600  0.15449207  0.17628775    -0.54100
C380        C  0.03667366  0.12476314  0.16641064     0.10000
H381        H  0.06364955  0.08510440  0.19893637     0.14500
H382        H  0.02015763  0.06383930  0.15599027     0.00300
H383        H  0.15486774  0.14893231  0.17081731     0.14800
H384        H  0.06251597  0.18257373  0.17939839     0.14600
N385        N  0.24971682  0.28297868  0.29422297    -0.27400
N386        N  0.27556350  0.32401941  0.29894489    -0.35200
C387        C  0.28600871  0.32309234  0.31216399     0.01000
C388        C  0.26560718  0.27944209  0.31614955     0.07000
C389        C  0.24277815  0.25467986  0.30451121    -0.06100
H390        H  0.31041831  0.35211504  0.31800717     0.07700
H391        H  0.22642225  0.21922589  0.30320116     0.08900
Cu392      Cu  0.30685670  0.37975481  0.28668666     0.44200
Cu393      Cu  0.23382104  0.27002197  0.27321369     0.42000
Cu394      Cu  0.31035959  0.36480170  0.25051112     0.43900
N395        N  0.35328665  0.42946631  0.27387171    -0.34800
N396        N  0.35675683  0.42364485  0.26053908    -0.29000
C397        C  0.39422604  0.46001926  0.25557992    -0.05100
C398        C  0.41493129  0.49001679  0.26637266     0.07100
C399        C  0.38796620  0.46953608  0.27777649     0.00900
H400        H  0.40608106  0.46380649  0.24503909     0.08600
H401        H  0.39441519  0.48165578  0.28832859     0.07600
N402        N  0.25560833  0.30445451  0.24363565    -0.36200
N403        N  0.22740017  0.27088777  0.25172259    -0.28400
C404        C  0.19466169  0.23850139  0.24382442    -0.03600
C405        C  0.20287772  0.25206718  0.23013882     0.05000
C406        C  0.24179304  0.29402659  0.23043939     0.03100
H407        H  0.16713906  0.20712009  0.24773741     0.08200
H408        H  0.25843075  0.31587484  0.22173296     0.07000
N409        N  0.52963585  0.58431886  0.26225323    -0.27400
N410        N  0.51907843  0.59362453  0.27432186    -0.35200
C411        C  0.47622353  0.56268389  0.27721844     0.01000
C412        C  0.45867328  0.53247735  0.26644305     0.07000
C413        C  0.49332889  0.54730698  0.25705157    -0.06100
H414        H  0.45989132  0.56089469  0.28686613     0.07700
H415        H  0.49308599  0.53076037  0.24764944     0.08900
Cu416      Cu  0.56433833  0.64202375  0.28783073     0.44200
Cu417      Cu  0.59471709  0.61878161  0.25478283     0.42000
Cu418      Cu  0.67851975  0.68678647  0.28117848     0.43900
N419        N  0.61272408  0.67356117  0.30285837    -0.34800
N420        N  0.65468593  0.68720298  0.30066480    -0.29000
C421        C  0.67504985  0.69424788  0.31293250    -0.05100
C422        C  0.64461677  0.68548677  0.32333064     0.07100
C423        C  0.60544379  0.67224780  0.31653913     0.00900
H424        H  0.70793137  0.70051782  0.31420831     0.08600
H425        H  0.57270081  0.65663630  0.32120064     0.07600
N426        N  0.69276487  0.68498971  0.26051219    -0.36200
N427        N  0.66289588  0.65977980  0.25098967    -0.28400
C428        C  0.68331801  0.66921167  0.23858661    -0.03600
C429        C  0.72794380  0.70205975  0.24041371     0.05000
C430        C  0.73264542  0.71153830  0.25439710     0.03100
H431        H  0.66631625  0.65569649  0.22884351     0.08200
H432        H  0.76236628  0.73741004  0.25964247     0.07000
C433        C  0.12390413  0.17474311  0.19482649    -0.05500
C434        C  0.17096173  0.20118338  0.19413063    -0.33000
C435        C  0.19676859  0.22648726  0.20548225     0.36300
C436        C  0.17610542  0.22687309  0.21783915    -0.05900
C437        C  0.12942187  0.20231926  0.21846833    -0.32900
C438        C  0.10346109  0.17709523  0.20709601     0.36200
H439        H  0.18872095  0.20263084  0.18491942     0.16600
O440        O  0.24235793  0.24949488  0.20450710    -0.60400
H441        H  0.11290715  0.20268955  0.22783471     0.16600
O442        O  0.05788947  0.15330477  0.20829865    -0.60500
H443        H  0.04961032  0.17466479  0.20617547     0.43600
H444        H  0.25034597  0.22964517  0.20855496     0.43500
C445        C  0.00354315  0.01697458  0.18103259    -0.05500
C446        C  0.98055148  0.00212164  0.19371180    -0.33000
C447        C  0.94698676  0.95712413  0.19571662     0.36300
C448        C  0.93678563  0.92608945  0.18502362    -0.05900
C449        C  0.96263815  0.94065743  0.17295867    -0.32900
C450        C  0.99447740  0.98531230  0.17072606     0.36200
H451        H  0.98693419  0.02564102  0.20185678     0.16600
O452        O  0.92366330  0.94443264  0.20793976    -0.60400
H453        H  0.95763226  0.91757779  0.16485323     0.16600
O454        O  0.01684914  0.99719427  0.15839104    -0.60500
H455        H  0.99443222  0.99151893  0.15129351     0.43600
H456        H  0.90095809  0.95168815  0.20697986     0.43500
C457        C  0.81532120  0.78043951  0.20708009    -0.05500
C458        C  0.79813400  0.73474351  0.20785258    -0.33000
C459        C  0.77043852  0.70896647  0.21885396     0.36300
C460        C  0.76031465  0.72876064  0.22946985    -0.05900
C461        C  0.77861178  0.77433659  0.22909996    -0.32900
C462        C  0.80515329  0.79999716  0.21797814     0.36200
H463        H  0.80366102  0.71794257  0.19962432     0.16600
O464        O  0.75331754  0.66438632  0.21914305    -0.60400
H465        H  0.77027758  0.78976039  0.23710691     0.16600
O466        O  0.81821650  0.84353716  0.21735533    -0.60500
H467        H  0.84149443  0.85924139  0.22455336     0.43600
H468        H  0.72646527  0.65040143  0.21318591     0.43500
C469        C  0.21446951  0.14340575  0.42274149    -0.05500
C470        C  0.18947282  0.09760577  0.42032973    -0.33000
C471        C  0.16040667  0.06792160  0.43044100     0.36300
C472        C  0.15383750  0.08393704  0.44303009    -0.05900
C473        C  0.18182028  0.12984545  0.44579595    -0.32900
C474        C  0.21205510  0.15933114  0.43582444     0.36200
H475        H  0.19238033  0.08468686  0.41051977     0.16600
O476        O  0.13788746  0.02314289  0.42784996    -0.60400
H477        H  0.18061932  0.14360357  0.45559501     0.16600
O478        O  0.23799319  0.20381703  0.43884795    -0.60500
H479        H  0.22054835  0.21587226  0.43568744     0.43600
H480        H  0.11742139  0.01724679  0.42007265     0.43500
C481        C  0.98986242  0.97170018  0.44822848    -0.05500
C482        C  0.96871711  0.99285529  0.45238694    -0.33000
C483        C  0.92225082  0.96901369  0.45338980     0.36300
C484        C  0.89645928  0.92364049  0.44990732    -0.05900
C485        C  0.91748472  0.90443489  0.44369604    -0.32900
C486        C  0.96421420  0.92811280  0.44306003     0.36200
H487        H  0.98833908  0.02672575  0.45615771     0.16600
O488        O  0.90237929  0.98933162  0.45871092    -0.60400
H489        H  0.89820981  0.86939703  0.44113624     0.16600
O490        O  0.98419434  0.90645290  0.43923159    -0.60500
H491        H  0.99772487  0.91870175  0.43004390     0.43600
H492        H  0.91347363  0.99792534  0.46833249     0.43500
C493        C  0.74041878  0.78721832  0.45231550    -0.05500
C494        C  0.70026877  0.78384886  0.44936512    -0.33000
C495        C  0.66831465  0.75056518  0.44054946     0.36300
C496        C  0.67557505  0.71941398  0.43470827    -0.05900
C497        C  0.71463405  0.72166425  0.43783041    -0.32900
C498        C  0.74729938  0.75559367  0.44624544     0.36200
H499        H  0.69419586  0.80822069  0.45314559     0.16600
O500        O  0.63094118  0.74989353  0.43722190    -0.60400
H501        H  0.72119587  0.69865932  0.43299749     0.16600
O502        O  0.78730641  0.75952279  0.44761186    -0.60500
H503        H  0.78079212  0.73376886  0.45326594     0.43600
H504        H  0.60877267  0.73163549  0.44449655     0.43500
C505        C  0.04616588  0.04936968  0.48419553    -0.05500
C506        C  0.03139439  0.01984600  0.49530528    -0.33000
C507        C  0.00392196  0.01949782  0.50551620     0.36300
C508        C  0.99121752  0.04989745  0.50515312    -0.05900
C509        C  0.00852403  0.08195423  0.49459273    -0.32900
C510        C  0.03559858  0.08160643  0.48403876     0.36200
H511        H  0.03965550  0.99531585  0.49588894     0.16600
O512        O  0.98990183  0.98911072  0.51590346    -0.60400
H513        H  0.99938647  0.10589258  0.49415573     0.16600
O514        O  0.04989787  0.11153150  0.47342279    -0.60500
H515        H  0.02330150  0.10098051  0.46755891     0.43600
H516        H  0.96662753  0.96043309  0.51166798     0.43500
C517        C  0.84319644  0.97960874  0.50832089    -0.05500
C518        C  0.81451286  0.93395130  0.51078496    -0.33000
C519        C  0.79458039  0.90397776  0.49973791     0.36300
C520        C  0.80339673  0.91979876  0.48605199    -0.05900
C521        C  0.82704265  0.96564559  0.48376595    -0.32900
C522        C  0.84740176  0.99560664  0.49479199     0.36200
H523        H  0.81117222  0.92125128  0.52114586     0.16600
O524        O  0.77221877  0.85934188  0.50229626    -0.60400
H525        H  0.83411213  0.97819492  0.47328578     0.16600
O526        O  0.87559552  0.04005510  0.49205382    -0.60500
H527        H  0.90485234  0.04460582  0.48990486     0.43600
H528        H  0.74037430  0.84901342  0.50299130     0.43500
C529        C  0.95624720  0.18319393  0.55879961    -0.05500
C530        C  0.98645720  0.17042427  0.55805330    -0.33000
C531        C  0.97788681  0.13492281  0.54964250     0.36300
C532        C  0.93793256  0.11071128  0.54186610    -0.05900
C533        C  0.90813147  0.12443927  0.54250012    -0.32900
C534        C  0.91718515  0.16042275  0.55078022     0.36200
H535        H  0.01682095  0.18791249  0.56410018     0.16600
O536        O  0.00885598  0.12396744  0.54909689    -0.60400
H537        H  0.87723238  0.10745497  0.53685662     0.16600
O538        O  0.88608522  0.17108390  0.55167062    -0.60500
H539        H  0.89008112  0.18797832  0.54312476     0.43600
H540        H  0.00732667  0.11086690  0.55823616     0.43500
C541        C  0.92425454  0.84622100  0.50651280    -0.05500
C542        C  0.94125010  0.87357884  0.49490914    -0.33000
C543        C  0.91320930  0.87298553  0.48504044     0.36300
C544        C  0.86676198  0.84606196  0.48683904    -0.05900
C545        C  0.84910736  0.81840065  0.49847762    -0.32900
C546        C  0.87763726  0.81823205  0.50832191     0.36200
H547        H  0.97677460  0.89576776  0.49331385     0.16600
O548        O  0.93187532  0.89894756  0.47358284    -0.60400
H549        H  0.81338101  0.79810652  0.50015903     0.16600
O550        O  0.85983230  0.79337482  0.52008879    -0.60500
H551        H  0.84778183  0.76237594  0.51718699     0.43600
H552        H  0.94505126  0.88522925  0.46830159     0.43500
C553        C  0.97293445  0.91989145  0.54219984    -0.05500
C554        C  0.92720629  0.89971292  0.53979806    -0.33000
C555        C  0.90889577  0.92519939  0.53921705     0.36300
C556        C  0.93605413  0.97109946  0.54169382    -0.05900
C557        C  0.98002471  0.98985798  0.54633656    -0.32900
C558        C  0.99875869  0.96455159  0.54639538     0.36200
H559        H  0.90671987  0.86507097  0.53684885     0.16600
O560        O  0.86534897  0.90569011  0.53524161    -0.60400
H561        H  0.00147227  0.02527231  0.54820681     0.16600
O562        O  0.04342844  0.98500839  0.54893850    -0.60500
H563        H  0.04513055  0.97464193  0.55824371     0.43600
H564        H  0.86436236  0.89753274  0.52536476     0.43500
C565        C  0.09085006  0.96300714  0.47966087    -0.05500
C566        C  0.06245525  0.91657335  0.47942587    -0.33000
C567        C  0.04993245  0.89204283  0.49178425     0.36300
C568        C  0.06437387  0.91431845  0.50461935    -0.05900
C569        C  0.09627384  0.96021015  0.50473171    -0.32900
C570        C  0.11040313  0.98442507  0.49232292     0.36200
H571        H  0.04707474  0.89961601  0.46978562     0.16600
O572        O  0.02064153  0.84669889  0.49138020    -0.60400
H573        H  0.10771571  0.97780283  0.51450497     0.16600
O574        O  0.14017505  0.02961113  0.49278896    -0.60500
H575        H  0.12293042  0.04185395  0.49609797     0.43600
H576        H  0.99332058  0.84081266  0.48677464     0.43500
C577        C  0.99512590  0.79469824  0.54111296    -0.05500
C578        C  0.96585387  0.74919008  0.53797190    -0.33000
C579        C  0.96419581  0.71658511  0.54621366     0.36300
C580        C  0.99189561  0.72896603  0.55789346    -0.05900
C581        C  0.02352231  0.77406265  0.56040298    -0.32900
C582        C  0.02593245  0.80670123  0.55200130     0.36200
H583        H  0.94384056  0.73800705  0.52919115     0.16600
O584        O  0.93416934  0.67274762  0.54299941    -0.60400
H585        H  0.04608229  0.78414495  0.56908986     0.16600
O586        O  0.05831866  0.85046863  0.55460016    -0.60500
H587        H  0.04961883  0.85777459  0.56344999     0.43600
H588        H  0.90608100  0.66462184  0.54772357     0.43500
C589        C  0.06463793  0.25275934  0.75486328    -0.05500
C590        C  0.03629251  0.20673940  0.75310012    -0.33000
C591        C  0.03583353  0.17744218  0.76258253     0.36300
C592        C  0.06628656  0.19359341  0.77376643    -0.05900
C593        C  0.09530980  0.24012651  0.77533709    -0.32900
C594        C  0.09425612  0.26944649  0.76610236     0.36200
H595        H  0.01255448  0.19325719  0.74467090     0.16600
O596        O  0.00428076  0.13295312  0.76098849    -0.60400
H597        H  0.11755899  0.25438354  0.78407326     0.16600
O598        O  0.12266286  0.31435365  0.76806892    -0.60500
H599        H  0.10804203  0.32210802  0.77518631     0.43600
H600        H  0.97752670  0.12750417  0.76598063     0.43500
C601        C  0.99391885  0.94891591  0.78772488    -0.05500
C602        C  0.02749303  0.97678292  0.79706283    -0.33000
C603        C  0.04876859  0.02236303  0.79660460     0.36300
C604        C  0.03493440  0.04184070  0.78720796    -0.05900
C605        C  0.00340798  0.01456062  0.77703084    -0.32900
C606        C  0.98293784  0.96813094  0.77722125     0.36200
H607        H  0.03734853  0.96348873  0.80510963     0.16600
O608        O  0.08215760  0.04737749  0.80586458    -0.60400
H609        H  0.99229510  0.02869292  0.76958698     0.16600
O610        O  0.95063964  0.94198573  0.76770226    -0.60500
H611        H  0.92230359  0.93512383  0.77191696     0.43600
H612        H  0.10594565  0.04237606  0.80348503     0.43500
C613        C  0.94787196  0.79249968  0.77481492    -0.05500
C614        C  0.91509986  0.74649022  0.77537372    -0.33000
C615        C  0.91662809  0.71665984  0.76635906     0.36300
C616        C  0.95067488  0.73240707  0.75636871    -0.05900
C617        C  0.98324332  0.77787658  0.75569522    -0.32900
C618        C  0.98304944  0.80749838  0.76504706     0.36200
H619        H  0.88906931  0.73292649  0.78311689     0.16600
O620        O  0.88471741  0.67210542  0.76744002    -0.60400
H621        H  0.01004714  0.79036335  0.74818394     0.16600
O622        O  0.01820124  0.85109029  0.76470224    -0.60500
H623        H  0.04159519  0.85261947  0.77053304     0.43600
H624        H  0.86124289  0.66619309  0.76074422     0.43500
C625        C  0.16853066  0.11934486  0.83093292    -0.05500
C626        C  0.17335473  0.11863489  0.81656478    -0.33000
C627        C  0.15634236  0.13660024  0.80776734     0.36300
C628        C  0.13211278  0.15322133  0.81339122    -0.05900
C629        C  0.13432578  0.16100325  0.82769823    -0.32900
C630        C  0.15360029  0.14515478  0.83648732     0.36200
H631        H  0.18552315  0.09962612  0.81211638     0.16600
O632        O  0.15649983  0.13040426  0.79375994    -0.60400
H633        H  0.11720550  0.17521477  0.83218099     0.16600
O634        O  0.15340440  0.15100599  0.85053786    -0.60500
H635        H  0.12482515  0.12516382  0.85399440     0.43600
H636        H  0.18454503  0.15716724  0.79038218     0.43500
C637        C  0.20279737  0.04697048  0.87031915    -0.05500
C638        C  0.24886158  0.08011035  0.87123517    -0.33000
C639        C  0.27537321  0.07824301  0.88143407     0.36300
C640        C  0.25605492  0.04332866  0.89101608    -0.05900
C641        C  0.21042469  0.01055042  0.89022761    -0.32900
C642        C  0.18415606  0.01152973  0.87989637     0.36200
H643        H  0.26520339  0.10690597  0.86388725     0.16600
O644        O  0.32014104  0.11053284  0.88187803    -0.60400
H645        H  0.19516648  0.98294888  0.89738269     0.16600
O646        O  0.14004709  0.97727673  0.87920715    -0.60500
H647        H  0.13980229  0.95236506  0.87473805     0.43600
H648        H  0.32354576  0.13114589  0.88934733     0.43500
C649        C  0.10116009  0.95936937  0.83133350    -0.05500
C650        C  0.10906898  0.95518588  0.81737824    -0.33000
C651        C  0.07563479  0.92008612  0.80932206     0.36300
C652        C  0.03323296  0.89000426  0.81516271    -0.05900
C653        C  0.02678332  0.89223788  0.82936555    -0.32900
C654        C  0.06071594  0.92607629  0.83750341     0.36200
H655        H  0.13998897  0.98065766  0.81251457     0.16600
O656        O  0.08299990  0.91821634  0.79545404    -0.60400
H657        H  0.99430477  0.86953399  0.83395697     0.16600
O658        O  0.05245395  0.92866270  0.85122064    -0.60500
H659        H  0.06656715  0.91571209  0.85625945     0.43600
H660        H  0.08105116  0.94182260  0.79108407     0.43500
C661        C  0.96246061  0.98663252  0.85694745    -0.05500
C662        C  0.99081334  0.01989494  0.84766908    -0.33000
C663        C  0.03607635  0.03760814  0.84739338     0.36300
C664        C  0.05440689  0.02121395  0.85631275    -0.05900
C665        C  0.02658458  0.98954705  0.86635402    -0.32900
C666        C  0.98060833  0.97215506  0.86670654     0.36200
H667        H  0.97790288  0.03184727  0.84016528     0.16600
O668        O  0.06165961  0.06980058  0.83786266    -0.60400
H669        H  0.03985477  0.97634132  0.87334821     0.16600
O670        O  0.95367261  0.93961428  0.87603665    -0.60500
H671        H  0.94309442  0.91124724  0.87115769     0.43600
H672        H  0.05713046  0.09406940  0.83975348     0.43500
C673        C  0.90340950  0.02823788  0.82983552    -0.05500
C674        C  0.90309243  0.01924266  0.81570256    -0.33000
C675        C  0.93732052  0.05032249  0.80693548     0.36300
C676        C  0.97270928  0.09094947  0.81233041    -0.05900
C677        C  0.97104116  0.10158286  0.82619711    -0.32900
C678        C  0.93617555  0.07083986  0.83490639     0.36200
H679        H  0.87833820  0.98656607  0.81168670     0.16600
O680        O  0.93758686  0.03963474  0.79330025    -0.60400
H681        H  0.99844248  0.13242093  0.83051959     0.16600
O682        O  0.93838852  0.08017016  0.84876448    -0.60500
H683        H  0.92029116  0.09296906  0.84998505     0.43600
H684        H  0.94017382  0.01371261  0.79340792     0.43500
C685        C  0.84903375  0.87574162  0.83277915    -0.05500
C686        C  0.84081513  0.87463328  0.81855393    -0.33000
C687        C  0.85666868  0.85662089  0.80909210     0.36300
C688        C  0.88111575  0.83937020  0.81383169    -0.05900
C689        C  0.88551678  0.83670747  0.82814460    -0.32900
C690        C  0.86966797  0.85462397  0.83758451     0.36200
H691        H  0.82629439  0.89194705  0.81464156     0.16600
O692        O  0.85254357  0.86060793  0.79517231    -0.60400
H693        H  0.90557119  0.82505739  0.83195341     0.16600
O694        O  0.88030528  0.85705206  0.85129990    -0.60500
H695        H  0.85322268  0.83178574  0.85571943     0.43600
H696        H  0.87665071  0.89157861  0.79286111     0.43500
C697        C  0.74816975  0.94943119  0.89059349    -0.05500
C698        C  0.73532740  0.93680723  0.87675654    -0.33000
C699        C  0.76365132  0.93453109  0.86720203     0.36300
C700        C  0.80612808  0.94491260  0.87127436    -0.05900
C701        C  0.81765438  0.95516535  0.88535296    -0.32900
C702        C  0.78952368  0.95758966  0.89486163     0.36200
H703        H  0.70329481  0.92903842  0.87319548     0.16600
O704        O  0.74961782  0.92251418  0.85379065    -0.60400
H705        H  0.84899720  0.96286695  0.88933704     0.16600
O706        O  0.80449302  0.97076122  0.90813313    -0.60500
H707        H  0.80104453  0.94441066  0.91261546     0.43600
H708        H  0.75296393  0.94907261  0.84951398     0.43500
C709        C  0.09334254  0.00838982  0.13748953    -0.05500
C710        C  0.08955826  0.04031753  0.13065340    -0.33000
C711        C  0.09444256  0.07651693  0.13792130     0.36300
C712        C  0.10478732  0.08195791  0.15210003    -0.05900
C713        C  0.11422428  0.05312508  0.15846738    -0.32900
C714        C  0.10740629  0.01582656  0.15134210     0.36200
H715        H  0.07839293  0.03479176  0.12000966     0.16600
O716        O  0.08601484  0.10467968  0.13136268    -0.60400
H717        H  0.12118131  0.05618388  0.16945628     0.16600
O718        O  0.11032514  0.98468316  0.15836295    -0.60500
H719        H  0.08062042  0.96489404  0.16271769     0.43600
H720        H  0.05340550  0.08694872  0.12966215     0.43500
C721        C  0.97659195  0.85041286  0.14287456    -0.05500
C722        C  0.98569165  0.85308786  0.15704463    -0.33000
C723        C  0.95081543  0.83440021  0.16678940     0.36300
C724        C  0.90629711  0.81378057  0.16233492    -0.05900
C725        C  0.89716812  0.80723946  0.14812742    -0.32900
C726        C  0.93194383  0.82458996  0.13840656     0.36200
H727        H  0.01988864  0.87301769  0.16061206     0.16600
O728        O  0.96067126  0.84032238  0.18065580    -0.60400
H729        H  0.86328936  0.79237956  0.14453519     0.16600
O730        O  0.92203304  0.82174995  0.12460801    -0.60500
H731        H  0.92139975  0.79550588  0.12116742     0.43600
H732        H  0.97635174  0.87266303  0.18239400     0.43500
C733        C  0.07564421  0.90293411  0.10018976    -0.05500
C734        C  0.07446548  0.91394698  0.08630557    -0.33000
C735        C  0.10063056  0.91094317  0.07609253     0.36300
C736        C  0.12848287  0.89615335  0.07954562    -0.05900
C737        C  0.12812843  0.88341282  0.09323753    -0.32900
C738        C  0.10291369  0.88730314  0.10347181     0.36200
H739        H  0.05546729  0.92745023  0.08328224     0.16600
O740        O  0.09996426  0.92455655  0.06294862    -0.60400
H741        H  0.14845302  0.87129414  0.09626070     0.15400
O742        O  0.10722432  0.87803772  0.11688740    -0.60500
H743        H  0.09129475  0.84524770  0.11731554     0.43600
H744        H  0.12425394  0.95650823  0.06271202     0.43500
C745        C  0.80164026  0.92680953  0.15212546    -0.05500
C746        C  0.81783278  0.93756458  0.16569428    -0.33000
C747        C  0.81966842  0.90690292  0.17387971     0.36300
C748        C  0.80609729  0.86506353  0.16841887    -0.05900
C749        C  0.78520074  0.85233279  0.15547198    -0.32900
C750        C  0.78233210  0.88280856  0.14735135     0.36200
H751        H  0.83305614  0.97123627  0.16947429     0.16600
O752        O  0.83977290  0.92009886  0.18657247    -0.60400
H753        H  0.77484280  0.82030073  0.15113593     0.16600
O754        O  0.76611279  0.87108457  0.13412885    -0.60500
H755        H  0.79164607  0.87653992  0.12839657     0.43600
H756        H  0.81500240  0.90579727  0.19338982     0.43500
C757        C  0.91735794  0.08048515  0.14494928    -0.05500
C758        C  0.91830085  0.08611928  0.15936852    -0.33000
C759        C  0.95894342  0.10764912  0.16661018     0.36300
C760        C  0.99914800  0.12319173  0.15940475    -0.05900
C761        C  0.99842947  0.12202538  0.14489172    -0.32900
C762        C  0.95803301  0.10091425  0.13765994     0.36200
H763        H  0.88729604  0.06997192  0.16515081     0.16600
O764        O  0.95851104  0.10898165  0.18079732    -0.60400
H765        H  0.02893313  0.13330742  0.13921386     0.16600
O766        O  0.95840509  0.09467945  0.12365999    -0.60500
H767        H  0.95395683  0.11684513  0.11941456     0.43600
H768        H  0.95184533  0.07975531  0.18384150     0.43500
C769        C  0.96567767  0.94156681  0.11894732    -0.05500
C770        C  0.93468351  0.92465475  0.12978560    -0.33000
C771        C  0.90574135  0.93822638  0.13183672     0.36300
C772        C  0.90547626  0.96798615  0.12260110    -0.05900
C773        C  0.93435687  0.98278869  0.11109114    -0.32900
C774        C  0.96479442  0.97017938  0.10930926     0.36200
H775        H  0.93371409  0.90179985  0.13716542     0.16600
O776        O  0.87750642  0.92156195  0.14293902    -0.60400
H777        H  0.93474423  0.00570363  0.10383453     0.16600
O778        O  0.99451132  0.98739875  0.09851044    -0.60500
H779        H  0.01984918  0.01649815  0.10187935     0.43600
H780        H  0.89655711  0.93679478  0.15113056     0.43500
C781        C  0.79038918  0.00383344  0.10991257    -0.05500
C782        C  0.80136097  0.00771751  0.09576960    -0.33000
C783        C  0.77278947  0.00544025  0.08555606     0.36300
C784        C  0.73122249  0.99868263  0.08915497    -0.05900
C785        C  0.72232937  0.99948895  0.10333755    -0.32900
C786        C  0.75176037  0.00294306  0.11361003     0.36200
H787        H  0.83276699  0.01344149  0.09236465     0.16600
O788        O  0.78663512  0.01006324  0.07209008    -0.60400
H789        H  0.69231220  0.99717521  0.10661677     0.16600
O790        O  0.74280197  0.00609660  0.12724063    -0.60500
H791        H  0.71474404  0.97742840  0.12947949     0.43600
H792        H  0.80128153  0.04206128  0.07002398     0.43500
loop_ 
_geom_bond_atom_site_label_1 
_geom_bond_atom_site_label_2 
_geom_bond_distance 
_geom_bond_site_symmetry_2 
_ccdc_geom_bond_type 
C1            C2   1.549   1_545  S
C1            C7   1.556   1_545  S
C1            C5   1.547       .  S
C1          C781   1.541       .  S
C2            H9   1.085       .  S
C2            C3   1.364       .  D
C3            C4   1.533       .  S
C3          C745   1.484       .  S
C4            C8   1.534       .  S
C4            C6   1.527   1_565  S
C4           H10   1.109       .  S
C5           H11   1.086       .  S
C5            C6   1.368       .  D
C6          C757   1.485       .  S
C7           H12   1.083       .  S
C7            C8   1.365       .  D
C8          C772   1.488       .  S
C13          C14   1.544       .  S
C13          C19   1.556       .  S
C13          C17   1.547       .  S
C13         C733   1.530       .  S
C14          H21   1.086       .  S
C14          C15   1.360       .  D
C15          C16   1.527       .  S
C15         C709   1.483   1_565  S
C16          C20   1.535       .  S
C16          C18   1.529       .  S
C16          H22   1.105       .  S
C17          H23   1.086       .  S
C17          C18   1.360       .  D
C18         C721   1.482   1_455  S
C19          H24   1.082       .  S
C19          C20   1.371       .  D
C20         C769   1.484   1_455  S
C25          C26   1.551       .  S
C25          C31   1.557       .  S
C25          C29   1.554       .  S
C25         C700   1.542       .  S
C26          H33   1.086   1_565  S
C26          C27   1.363       .  D
C27          C28   1.527       .  S
C27         C673   1.484   1_565  S
C28          C32   1.530       .  S
C28          C30   1.523       .  S
C28          H34   1.112       .  S
C29          H35   1.085       .  S
C29          C30   1.370       .  D
C30         C685   1.485       .  S
C31          H36   1.080       .  S
C31          C32   1.362       .  D
C32         C661   1.476       .  S
C37          C38   1.542       .  S
C37          C43   1.549       .  S
C37          C41   1.553       .  S
C37         C637   1.529       .  S
C38          H45   1.086   1_545  S
C38          C39   1.358       .  D
C39          C40   1.529       .  S
C39         C649   1.480   1_545  S
C40          C44   1.536       .  S
C40          C42   1.538       .  S
C40          H46   1.107       .  S
C41          H47   1.083       .  S
C41          C42   1.366       .  D
C42         C625   1.486       .  S
C43          H48   1.086       .  S
C43          C44   1.365       .  D
C44         C664   1.485       .  S
N49          N50   1.320       .  A
N49          C53   1.357       .  A
N49         Cu57   2.107       .  S
N50          C51   1.335       .  A
N50         Cu56   2.045       .  S
C51          C52   1.377       .  A
C51          H54   1.081       .  S
C52          C53   1.395       .  A
C52         C100   1.479       .  S
C53          H55   1.082       .  S
Cu56         N59   2.045       .  S
Cu57         N67   2.111       .  S
Cu58         N60   2.078       .  S
Cu58         N66   2.084       .  S
N59          N60   1.317       .  A
N59          C63   1.337       .  A
N60          C61   1.351       .  A
C61          C62   1.391   1_554  A
C61          H64   1.082       .  S
C62          C63   1.380   1_556  A
C62          C86   1.473       .  S
C63          H65   1.082   1_554  S
N66          N67   1.325       .  A
N66          C70   1.340       .  A
N67          C68   1.352       .  A
C68          C69   1.398       .  A
C68          H71   1.081       .  S
C69          C70   1.390       .  A
C69         C784   1.507       .  S
C70          H72   1.077       .  S
N73          N74   1.321       .  A
N73          C77   1.353       .  A
N73         Cu81   2.091       .  S
N74          C75   1.338       .  A
N74         Cu80   2.057       .  S
C75          C76   1.379       .  A
C75          H78   1.082       .  S
C76          C77   1.390       .  A
C76         C124   1.474       .  S
C77          H79   1.082       .  S
Cu80         N83   2.058       .  S
Cu81         N91   2.095       .  S
Cu82         N84   2.070       .  S
Cu82         N90   2.075       .  S
N83          N84   1.318       .  A
N83          C87   1.339       .  A
N84          C85   1.350       .  A
C85          C86   1.387       .  A
C85          H88   1.082       .  S
C86          C87   1.382       .  A
C87          H89   1.082       .  S
N90          N91   1.323       .  A
N90          C94   1.342       .  A
N91          C92   1.349       .  A
C92          C93   1.392       .  A
C92          H95   1.081       .  S
C93          C94   1.388       .  A
C93         C697   1.496       .  S
C94          H96   1.079       .  S
N97          N98   1.320       .  A
N97         C101   1.354       .  A
N97        Cu105   2.089       .  S
N98          C99   1.337       .  A
N98        Cu104   2.058       .  S
C99         C100   1.382       .  A
C99         H102   1.081       .  S
C100        C101   1.391       .  A
C101        H103   1.082       .  S
Cu104       N107   2.057       .  S
Cu105       N115   2.093       .  S
Cu106       N108   2.065       .  S
Cu106       N114   2.067       .  S
N107        N108   1.320       .  A
N107        C111   1.339   1_554  A
N108        C109   1.347   1_554  A
C109        C110   1.385       .  A
C109        H112   1.082       .  S
C110        C111   1.380       .  A
C110        C134   1.467       .  S
C111        H113   1.082       .  S
N114        N115   1.323       .  A
N114        C118   1.345       .  A
N115        C116   1.343       .  A
C116        C117   1.391       .  A
C116        H119   1.081       .  S
C117        C118   1.387       .  A
C117        C736   1.491       .  S
C118        H120   1.080       .  S
N121        N122   1.321       .  A
N121        C125   1.351       .  A
N121       Cu129   2.086       .  S
N122        C123   1.338       .  A
N122       Cu128   2.060       .  S
C123        C124   1.381       .  A
C123        H126   1.082       .  S
C124        C125   1.388       .  A
C125        H127   1.082       .  S
Cu128       N131   2.060       .  S
Cu129       N139   2.088   1_565  S
Cu130       N132   2.059       .  S
Cu130       N138   2.061   1_565  S
N131        N132   1.319       .  A
N131        C135   1.340       .  A
N132        C133   1.347       .  A
C133        C134   1.384       .  A
C133        H136   1.082       .  S
C134        C135   1.381       .  A
C135        H137   1.082       .  S
N138        N139   1.325       .  A
N138        C142   1.339       .  A
N139        C140   1.348       .  A
C140        C141   1.385       .  A
C140        H143   1.082       .  S
C141        C142   1.379       .  A
C141        C640   1.473       .  S
C142        H144   1.082       .  S
C145        C146   1.544       .  S
C145        C151   1.552       .  S
C145        C149   1.560       .  S
C145        C613   1.536       .  S
C146        H153   1.086   1_655  S
C146        C147   1.358       .  D
C147        C148   1.527       .  S
C147        C652   1.479   1_655  S
C148        C152   1.534       .  S
C148        C150   1.525       .  S
C148        H154   1.112       .  S
C149        H155   1.084       .  S
C149        C150   1.371       .  D
C150        C688   1.486       .  S
C151        H156   1.085       .  S
C151        C152   1.366       .  D
C152        C601   1.484       .  S
C157        C158   1.542       .  S
C157        C163   1.553       .  S
C157        C161   1.553       .  S
C157        C592   1.537       .  S
C158        H165   1.086   1_455  S
C158        C159   1.359       .  D
C159        C160   1.530       .  S
C159        C676   1.483   1_455  S
C160        C164   1.539       .  S
C160        C162   1.539       .  S
C160        H166   1.108       .  S
C161        H167   1.084       .  S
C161        C162   1.366       .  D
C162        C628   1.489       .  S
C163        H168   1.085       .  S
C163        C164   1.368       .  D
C164        C604   1.490       .  S
N169        N170   1.321       .  A
N169        C173   1.356       .  A
N169       Cu177   2.106   1_655  S
N170        C171   1.336       .  A
N170       Cu176   2.049       .  S
C171        C172   1.378       .  A
C171        H174   1.082       .  S
C172        C173   1.395       .  A
C172        C196   1.480       .  S
C173        H175   1.082       .  S
Cu176       N179   2.051       .  S
Cu177       N187   2.110       .  S
Cu178       N180   2.080   1_455  S
Cu178       N186   2.084       .  S
N179        N180   1.318       .  A
N179        C183   1.338       .  A
N180        C181   1.351       .  A
C181        C182   1.390       .  A
C181        H184   1.082   1_655  S
C182        C183   1.381       .  A
C182        C254   1.474       .  S
C183        H185   1.082       .  S
N186        N187   1.327       .  A
N186        C190   1.344       .  A
N187        C188   1.351       .  A
C188        C189   1.389       .  A
C188        H191   1.082       .  S
C189        C190   1.381       .  A
C189        C589   1.483       .  S
C190        H192   1.082       .  S
N193        N194   1.320       .  A
N193        C197   1.354       .  A
N193       Cu201   2.090       .  S
N194        C195   1.339       .  A
N194       Cu200   2.065       .  S
C195        C196   1.383       .  A
C195        H198   1.082       .  S
C196        C197   1.390       .  A
C197        H199   1.082       .  S
Cu200       N203   2.064       .  S
Cu201       N211   2.095       .  S
Cu202       N204   2.081       .  S
Cu202       N210   2.084       .  S
N203        N204   1.320       .  A
N203        C207   1.339       .  A
N204        C205   1.352       .  A
C205        C206   1.388       .  A
C205        H208   1.082       .  S
C206        C207   1.381       .  A
C206        C278   1.474       .  S
C207        H209   1.082       .  S
N210        N211   1.327       .  A
N210        C214   1.345       .  A
N211        C212   1.348       .  A
C212        C213   1.384       .  A
C212        H215   1.082       .  S
C213        C214   1.381       .  A
C213        C616   1.478       .  S
C214        H216   1.082       .  S
C217        C218   1.556       .  S
C217        C223   1.547       .  S
C217        C221   1.544   1_655  S
C217        C577   1.530       .  S
C218        H225   1.081       .  S
C218        C219   1.367       .  D
C219        C220   1.531       .  S
C219        C541   1.478       .  S
C220        C224   1.531       .  S
C220        C222   1.530   1_655  S
C220        H226   1.104   1_655  S
C221        H227   1.086       .  S
C221        C222   1.362       .  D
C222        C568   1.488       .  S
C223        H228   1.086       .  S
C223        C224   1.361       .  D
C224        C553   1.480       .  S
C229        C230   1.545       .  S
C229        C235   1.545       .  S
C229        C233   1.554       .  S
C229        C532   1.529       .  S
C230        H237   1.086       .  S
C230        C231   1.364       .  D
C231        C232   1.539       .  S
C231        C508   1.488       .  S
C232        C236   1.533       .  S
C232        C234   1.529       .  S
C232        H238   1.108   1_545  S
C233        H239   1.081       .  S
C233        C234   1.364       .  D
C234        C517   1.478   1_545  S
C235        H240   1.086       .  S
C235        C236   1.360       .  D
C236        C556   1.482   1_545  S
N241        N242   1.319       .  A
N241        C245   1.346       .  A
N241       Cu249   2.062       .  S
N242        C243   1.340       .  A
N242       Cu248   2.059       .  S
C243        C244   1.382       .  A
C243        H246   1.082       .  S
C244        C245   1.385       .  A
C244        C268   1.468       .  S
C245        H247   1.082       .  S
Cu248       N251   2.059       .  S
Cu249       N259   2.064       .  S
Cu250       N252   2.083       .  S
Cu250       N258   2.085       .  S
N251        N252   1.321       .  A
N251        C255   1.338       .  A
N252        C253   1.351       .  A
C253        C254   1.389       .  A
C253        H256   1.082       .  S
C254        C255   1.380       .  A
C255        H257   1.081       .  S
N258        N259   1.325       .  A
N258        C262   1.345       .  A
N259        C260   1.342       .  A
C260        C261   1.380       .  A
C260        H263   1.082       .  S
C261        C262   1.384       .  A
C261        C529   1.474       .  S
C262        H264   1.082       .  S
N265        N266   1.320       .  A
N265        C269   1.347       .  A
N265       Cu273   2.071       .  S
N266        C267   1.341       .  A
N266       Cu272   2.056       .  S
C267        C268   1.381       .  A
C267        H270   1.082       .  S
C268        C269   1.385       .  A
C269        H271   1.082       .  S
Cu272       N275   2.056       .  S
Cu273       N283   2.073       .  S
Cu274       N276   2.087       .  S
Cu274       N282   2.088       .  S
N275        N276   1.321       .  A
N275        C279   1.338       .  A
N276        C277   1.352       .  A
C277        C278   1.390       .  A
C277        H280   1.082       .  S
C278        C279   1.380       .  A
C279        H281   1.082       .  S
N282        N283   1.325       .  A
N282        C286   1.344       .  A
N283        C284   1.346       .  A
C284        C285   1.384       .  A
C284        H287   1.082       .  S
C285        C286   1.384       .  A
C285        C580   1.479       .  S
C286        H288   1.082       .  S
C289        C290   1.546       .  S
C289        C295   1.545       .  S
C289        C293   1.555       .  S
C289        C493   1.530       .  S
C290        H297   1.085       .  S
C290        C291   1.363       .  D
C291        C292   1.531       .  S
C291        C544   1.478       .  S
C292        C296   1.530       .  S
C292        C294   1.527       .  S
C292        H298   1.111       .  S
C293        H299   1.083       .  S
C293        C294   1.367       .  D
C294        C520   1.477       .  S
C295        H300   1.086       .  S
C295        C296   1.362       .  D
C296        C484   1.483       .  S
C301        C302   1.544       .  S
C301        C307   1.548       .  S
C301        C305   1.559       .  S
C301        C472   1.534       .  S
C302        H309   1.086       .  S
C302        C303   1.355   1_545  D
C303        C304   1.527       .  S
C303        C481   1.474   1_455  S
C304        C308   1.530       .  S
C304        C306   1.534   1_565  S
C304        H310   1.110       .  S
C305        H311   1.082       .  S
C305        C306   1.370       .  D
C306        C505   1.486       .  S
C307        H312   1.086       .  S
C307        C308   1.367   1_545  D
C308        C565   1.487       .  S
N313        N314   1.322       .  A
N313        C317   1.351       .  A
N313       Cu321   2.091       .  S
N314        C315   1.340       .  A
N314       Cu320   2.059       .  S
C315        C316   1.379       .  A
C315        H318   1.082       .  S
C316        C317   1.387       .  A
C316        C388   1.470       .  S
C317        H319   1.082       .  S
Cu320       N323   2.058       .  S
Cu321       N331   2.092       .  S
Cu322       N324   2.064       .  S
Cu322       N330   2.065       .  S
N323        N324   1.321       .  A
N323        C327   1.341       .  A
N324        C325   1.345       .  A
C325        C326   1.383       .  A
C325        H328   1.082       .  S
C326        C327   1.381       .  A
C326        C340   1.467       .  S
C327        H329   1.082       .  S
N330        N331   1.324       .  A
N330        C334   1.345       .  A
N331        C332   1.346       .  A
C332        C333   1.386       .  A
C332        H335   1.082       .  S
C333        C334   1.381       .  A
C333        C469   1.479       .  S
C334        H336   1.082       .  S
N337        N338   1.321       .  A
N337        C341   1.346       .  A
N337       Cu345   2.070       .  S
N338        C339   1.340       .  A
N338       Cu344   2.056       .  S
C339        C340   1.380       .  A
C339        H342   1.082       .  S
C340        C341   1.384       .  A
C341        H343   1.082       .  S
Cu344       N347   2.056       .  S
Cu345       N355   2.072       .  S
Cu346       N348   2.078       .  S
Cu346       N354   2.078       .  S
N347        N348   1.321       .  A
N347        C351   1.341       .  A
N348        C349   1.347       .  A
C349        C350   1.384       .  A
C349        H352   1.082       .  S
C350        C351   1.378       .  A
C350        C422   1.461       .  S
C351        H353   1.082       .  S
N354        N355   1.323       .  A
N354        C358   1.344       .  A
N355        C356   1.345       .  A
C356        C357   1.383       .  A
C356        H359   1.082       .  S
C357        C358   1.381       .  A
C357        C496   1.470       .  S
C358        H360   1.082       .  S
C361        C362   1.542       .  S
C361        C367   1.546       .  S
C361        C365   1.553       .  S
C361        C457   1.526       .  S
C362        H369   1.087       .  S
C362        C363   1.356       .  D
C363        C364   1.527       .  S
C363        C748   1.480       .  S
C364        C368   1.538       .  S
C364        C366   1.530       .  S
C364        H370   1.105       .  S
C365        H371   1.084       .  S
C365        C366   1.369       .  D
C366        C724   1.484       .  S
C367        H372   1.084       .  S
C367        C368   1.366       .  D
C368        C448   1.486       .  S
C373        C374   1.546       .  S
C373        C379   1.548       .  S
C373        C377   1.557       .  S
C373        C433   1.540       .  S
C374        H381   1.086       .  S
C374        C375   1.367       .  D
C375        C376   1.536       .  S
C375        C445   1.489       .  S
C376        C380   1.527       .  S
C376        C378   1.530       .  S
C376        H382   1.106       .  S
C377        H383   1.082       .  S
C377        C378   1.366       .  D
C378        C712   1.487       .  S
C379        H384   1.085       .  S
C379        C380   1.365       .  D
C380        C760   1.487   1_455  S
N385        N386   1.321       .  A
N385        C389   1.351       .  A
N385       Cu393   2.092       .  S
N386        C387   1.340       .  A
N386       Cu392   2.059       .  S
C387        C388   1.379       .  A
C387        H390   1.082       .  S
C388        C389   1.388       .  A
C389        H391   1.082       .  S
Cu392       N395   2.059       .  S
Cu393       N403   2.094       .  S
Cu394       N396   2.079       .  S
Cu394       N402   2.081       .  S
N395        N396   1.320       .  A
N395        C399   1.341       .  A
N396        C397   1.348       .  A
C397        C398   1.386       .  A
C397        H400   1.082       .  S
C398        C399   1.381       .  A
C398        C412   1.471       .  S
C399        H401   1.082       .  S
N402        N403   1.325       .  A
N402        C406   1.346       .  A
N403        C404   1.348       .  A
C404        C405   1.386       .  A
C404        H407   1.082       .  S
C405        C406   1.384       .  A
C405        C436   1.484       .  S
C406        H408   1.082       .  S
N409        N410   1.322       .  A
N409        C413   1.348       .  A
N409       Cu417   2.079       .  S
N410        C411   1.342       .  A
N410       Cu416   2.065       .  S
C411        C412   1.381       .  A
C411        H414   1.082       .  S
C412        C413   1.385       .  A
C413        H415   1.082       .  S
Cu416       N419   2.063       .  S
Cu417       N427   2.080       .  S
Cu418       N420   2.068       .  S
Cu418       N426   2.068       .  S
N419        N420   1.320       .  A
N419        C423   1.342       .  A
N420        C421   1.345       .  A
C421        C422   1.384       .  A
C421        H424   1.082       .  S
C422        C423   1.381       .  A
C423        H425   1.082       .  S
N426        N427   1.324       .  A
N426        C430   1.343       .  A
N427        C428   1.345       .  A
C428        C429   1.383       .  A
C428        H431   1.082       .  S
C429        C430   1.380       .  A
C429        C460   1.471       .  S
C430        H432   1.082       .  S
C433        C434   1.413       .  A
C433        C438   1.418       .  A
C434        C435   1.401       .  A
C434        H439   1.077       .  S
C435        C436   1.407       .  A
C435        O440   1.372       .  S
C436        C437   1.402       .  A
C437        C438   1.404       .  A
C437        H441   1.084       .  S
C438        O442   1.372       .  S
O440        H444   0.992       .  S
O442        H443   0.992       .  S
C445        C446   1.407   1_455  A
C445        C450   1.409   1_445  A
C446        C447   1.405   1_545  A
C446        H451   1.083       .  S
C447        C448   1.413       .  A
C447        O452   1.371       .  S
C448        C449   1.398       .  A
C449        C450   1.387       .  A
C449        H453   1.081       .  S
C450        O454   1.366   1_655  S
O452        H456   0.991       .  S
O454        H455   0.993   1_455  S
C457        C458   1.410       .  A
C457        C462   1.419       .  A
C458        C459   1.402       .  A
C458        H463   1.080       .  S
C459        C460   1.404       .  A
C459        O464   1.371       .  S
C460        C461   1.397       .  A
C461        C462   1.396       .  A
C461        H465   1.084       .  S
C462        O466   1.373       .  S
O464        H468   0.992       .  S
O466        H467   0.992       .  S
C469        C470   1.399       .  A
C469        C474   1.408       .  A
C470        C471   1.400       .  A
C470        H475   1.084       .  S
C471        C472   1.417       .  A
C471        O476   1.374       .  S
C472        C473   1.411       .  A
C473        C474   1.403       .  A
C473        H477   1.078       .  S
C474        O478   1.372       .  S
O476        H480   0.992       .  S
O478        H479   0.992       .  S
C481        C482   1.400       .  A
C481        C486   1.404       .  A
C482        C483   1.398       .  A
C482        H487   1.083   1_565  S
C483        C484   1.407       .  A
C483        O488   1.373       .  S
C484        C485   1.408       .  A
C485        C486   1.404       .  A
C485        H489   1.083       .  S
C486        O490   1.371       .  S
O488        H492   0.992       .  S
O490        H491   0.992       .  S
C493        C494   1.412       .  A
C493        C498   1.419       .  A
C494        C495   1.402       .  A
C494        H499   1.079       .  S
C495        C496   1.403       .  A
C495        O500   1.371       .  S
C496        C497   1.397       .  A
C497        C498   1.398       .  A
C497        H501   1.084       .  S
C498        O502   1.373       .  S
O500        H504   0.992       .  S
O502        H503   0.992       .  S
C505        C506   1.399       .  A
C505        C510   1.411       .  A
C506        C507   1.387       .  A
C506        H511   1.081   1_545  S
C507        C508   1.405   1_455  A
C507        O512   1.366   1_445  S
C508        C509   1.408   1_655  A
C509        C510   1.410       .  A
C509        H513   1.083   1_455  S
C510        O514   1.372       .  S
O512        H516   0.991       .  S
O514        H515   0.991       .  S
C517        C518   1.402       .  A
C517        C522   1.407       .  A
C518        C519   1.401       .  A
C518        H523   1.082       .  S
C519        C520   1.408       .  A
C519        O524   1.371       .  S
C520        C521   1.401       .  A
C521        C522   1.401       .  A
C521        H525   1.083       .  S
C522        O526   1.372   1_565  S
O524        H528   0.991       .  S
O526        H527   0.992       .  S
C529        C530   1.397       .  A
C529        C534   1.407       .  A
C530        C531   1.398       .  A
C530        H535   1.084   1_655  S
C531        C532   1.418       .  A
C531        O536   1.374   1_655  S
C532        C533   1.409       .  A
C533        C534   1.400       .  A
C533        H537   1.077       .  S
C534        O538   1.372       .  S
O536        H540   0.992       .  S
O538        H539   0.992       .  S
C541        C542   1.396       .  A
C541        C546   1.411       .  A
C542        C543   1.384       .  A
C542        H547   1.080       .  S
C543        C544   1.404       .  A
C543        O548   1.366       .  S
C544        C545   1.405       .  A
C545        C546   1.407       .  A
C545        H549   1.083       .  S
C546        O550   1.371       .  S
O548        H552   0.992       .  S
O550        H551   0.991       .  S
C553        C554   1.403       .  A
C553        C558   1.405       .  A
C554        C555   1.399       .  A
C554        H559   1.082       .  S
C555        C556   1.404       .  A
C555        O560   1.372       .  S
C556        C557   1.408       .  A
C557        C558   1.404       .  A
C557        H561   1.084   1_665  S
C558        O562   1.371   1_655  S
O560        H564   0.992       .  S
O562        H563   0.992       .  S
C565        C566   1.402       .  A
C565        C570   1.410       .  A
C566        C567   1.408       .  A
C566        H571   1.084       .  S
C567        C568   1.411       .  A
C567        O572   1.375       .  S
C568        C569   1.402       .  A
C569        C570   1.406       .  A
C569        H573   1.083       .  S
C570        O574   1.373   1_565  S
O572        H576   0.991   1_455  S
O574        H575   0.991       .  S
C577        C578   1.411       .  A
C577        C582   1.415   1_655  A
C578        C579   1.401       .  A
C578        H583   1.078       .  S
C579        C580   1.408       .  A
C579        O584   1.371       .  S
C580        C581   1.400   1_655  A
C581        C582   1.399       .  A
C581        H585   1.084       .  S
C582        O586   1.373       .  S
O584        H588   0.992       .  S
O586        H587   0.992       .  S
C589        C590   1.400       .  A
C589        C594   1.405       .  A
C590        C591   1.398       .  A
C590        H595   1.084       .  S
C591        C592   1.418       .  A
C591        O596   1.371       .  S
C592        C593   1.415       .  A
C593        C594   1.407       .  A
C593        H597   1.080       .  S
C594        O598   1.372       .  S
O596        H600   0.992   1_455  S
O598        H599   0.992       .  S
C601        C602   1.395   1_655  A
C601        C606   1.410       .  A
C602        C603   1.382   1_565  A
C602        H607   1.076       .  S
C603        C604   1.404       .  A
C603        O608   1.365       .  S
C604        C605   1.411       .  A
C605        C606   1.412   1_445  A
C605        H609   1.083   1_455  S
C606        O610   1.371       .  S
O608        H612   0.993       .  S
O610        H611   0.991       .  S
C613        C614   1.412       .  A
C613        C618   1.421       .  A
C614        C615   1.406       .  A
C614        H619   1.080       .  S
C615        C616   1.406       .  A
C615        O620   1.371       .  S
C616        C617   1.397       .  A
C617        C618   1.399       .  A
C617        H621   1.084   1_655  S
C618        O622   1.372   1_655  S
O620        H624   0.992       .  S
O622        H623   0.992       .  S
C625        C626   1.400       .  A
C625        C630   1.411       .  A
C626        C627   1.404       .  A
C626        H631   1.084       .  S
C627        C628   1.408       .  A
C627        O632   1.371       .  S
C628        C629   1.403       .  A
C629        C630   1.408       .  A
C629        H633   1.083       .  S
C630        O634   1.373       .  S
O632        H636   0.991       .  S
O634        H635   0.990       .  S
C637        C638   1.413       .  A
C637        C642   1.417       .  A
C638        C639   1.404       .  A
C638        H643   1.078       .  S
C639        C640   1.404       .  A
C639        O644   1.372       .  S
C640        C641   1.399       .  A
C641        C642   1.393       .  A
C641        H645   1.084   1_545  S
C642        O646   1.373   1_545  S
O644        H648   0.992       .  S
O646        H647   0.992       .  S
C649        C650   1.401       .  A
C649        C654   1.409       .  A
C650        C651   1.406       .  A
C650        H655   1.083       .  S
C651        C652   1.412       .  A
C651        O656   1.373       .  S
C652        C653   1.400       .  A
C653        C654   1.398       .  A
C653        H657   1.084   1_455  S
C654        O658   1.371       .  S
O656        H660   0.991       .  S
O658        H659   0.991       .  S
C661        C662   1.392   1_565  A
C661        C666   1.408       .  A
C662        C663   1.382   1_655  A
C662        H667   1.076       .  S
C663        C664   1.405       .  A
C663        O668   1.368       .  S
C664        C665   1.411   1_545  A
C665        C666   1.408   1_455  A
C665        H669   1.083       .  S
C666        O670   1.371       .  S
O668        H672   0.992       .  S
O670        H671   0.992       .  S
C673        C674   1.401       .  A
C673        C678   1.412       .  A
C674        C675   1.403       .  A
C674        H679   1.084   1_545  S
C675        C676   1.408       .  A
C675        O680   1.372       .  S
C676        C677   1.402       .  A
C677        C678   1.406       .  A
C677        H681   1.083       .  S
C678        O682   1.371       .  S
O680        H684   0.992       .  S
O682        H683   0.991       .  S
C685        C686   1.404       .  A
C685        C690   1.409       .  A
C686        C687   1.407       .  A
C686        H691   1.084       .  S
C687        C688   1.410       .  A
C687        O692   1.372       .  S
C688        C689   1.403       .  A
C689        C690   1.403       .  A
C689        H693   1.084       .  S
C690        O694   1.371       .  S
O692        H696   0.992       .  S
O694        H695   0.991       .  S
C697        C698   1.406       .  A
C697        C702   1.411       .  A
C698        C699   1.406       .  A
C698        H703   1.082       .  S
C699        C700   1.415       .  A
C699        O704   1.372       .  S
C700        C701   1.411       .  A
C701        C702   1.400       .  A
C701        H705   1.074       .  S
C702        O706   1.371       .  S
O704        H708   0.992       .  S
O706        H707   0.992       .  S
C709        C710   1.404       .  A
C709        C714   1.405       .  A
C710        C711   1.404       .  A
C710        H715   1.083       .  S
C711        C712   1.406       .  A
C711        O716   1.372       .  S
C712        C713   1.408       .  A
C713        C714   1.406       .  A
C713        H717   1.084       .  S
C714        O718   1.371   1_545  S
O716        H720   0.992       .  S
O718        H719   0.992       .  S
C721        C722   1.400       .  A
C721        C726   1.409       .  A
C722        C723   1.405       .  A
C722        H727   1.084   1_655  S
C723        C724   1.411       .  A
C723        O728   1.373       .  S
C724        C725   1.402       .  A
C725        C726   1.402       .  A
C725        H729   1.084       .  S
C726        O730   1.371       .  S
O728        H732   0.992       .  S
O730        H731   0.991       .  S
C733        C734   1.410       .  A
C733        C738   1.414       .  A
C734        C735   1.404       .  A
C734        H739   1.079       .  S
C735        C736   1.414       .  A
C735        O740   1.371       .  S
C736        C737   1.402       .  A
C737        C738   1.396       .  A
C737        H741   1.082       .  S
C738        O742   1.372       .  S
O740        H744   0.992       .  S
O742        H743   0.992       .  S
C745        C746   1.401       .  A
C745        C750   1.414       .  A
C746        C747   1.397       .  A
C746        H751   1.084       .  S
C747        C748   1.407       .  A
C747        O752   1.370       .  S
C748        C749   1.402       .  A
C749        C750   1.407       .  A
C749        H753   1.083       .  S
C750        O754   1.372       .  S
O752        H756   0.992       .  S
O754        H755   0.992       .  S
C757        C758   1.405       .  A
C757        C762   1.408       .  A
C758        C759   1.408       .  A
C758        H763   1.084       .  S
C759        C760   1.410       .  A
C759        O764   1.372       .  S
C760        C761   1.403       .  A
C761        C762   1.401       .  A
C761        H765   1.083   1_655  S
C762        O766   1.371       .  S
O764        H768   0.992       .  S
O766        H767   0.991       .  S
C769        C770   1.398       .  A
C769        C774   1.410       .  A
C770        C771   1.387       .  A
C770        H775   1.081       .  S
C771        C772   1.407       .  A
C771        O776   1.366       .  S
C772        C773   1.408       .  A
C773        C774   1.408       .  A
C773        H777   1.083   1_565  S
C774        O778   1.371       .  S
O776        H780   0.992       .  S
O778        H779   0.992   1_665  S
C781        C782   1.407       .  A
C781        C786   1.415       .  A
C782        C783   1.399       .  A
C782        H787   1.079       .  S
C783        C784   1.417   1_545  A
C783        O788   1.368       .  S
C784        C785   1.409       .  A
C785        C786   1.410   1_565  A
C785        H789   1.081       .  S
C786        O790   1.373       .  S
O788        H792   0.992       .  S
O790        H791   0.992   1_545  S
