geometry optimzed in LAMMPS
_audit_creation_date              2020-12-01 
_audit_creation_method            'lammps2cif' 
_symmetry_space_group_name_H-M    'P1' 
_symmetry_Int_Tables_number       1 
_symmetry_cell_setting            triclinic 
loop_ 
_symmetry_equiv_pos_as_xyz 
  x,y,z 
_cell_length_a                    39.26378645 
_cell_length_b                    39.1597067835302 
_cell_length_c                    39.077921493688066 
_cell_angle_alpha                 89.74338479032221 
_cell_angle_beta                  90.667229688446 
_cell_angle_gamma                 89.98190210850466 
loop_ 
_atom_site_label 
_atom_site_type_symbol 
_atom_site_fract_x 
_atom_site_fract_y 
_atom_site_fract_z 
_atom_site_charge 
C1          C  0.09103235  0.09871896  0.08739021     0.86200
C2          C  0.07377009  0.12248703  0.11394720    -0.54100
C3          C  0.09562810  0.14226444  0.13312470     0.09100
C4          C  0.13284081  0.13891456  0.12120438     0.20000
C5          C  0.11101872  0.12390651  0.06464346    -0.54800
C6          C  0.13234853  0.14536233  0.08223327     0.09200
C7          C  0.11864720  0.07987070  0.10916274    -0.54300
C8          C  0.14119594  0.10076180  0.12623838     0.09800
H9          H  0.04670554  0.12437913  0.11733800     0.14300
H10         H  0.15131182  0.15581080  0.13435121     0.00000
H11         H  0.10789174  0.12517500  0.03702403     0.14600
H12         H  0.11899078  0.05231544  0.11190386     0.14400
C13         C  0.90772106  0.09403826  0.92106191     0.86200
C14         C  0.92734150  0.11942578  0.89770764    -0.54100
C15         C  0.90695420  0.13895253  0.87647809     0.09100
C16         C  0.86874443  0.13143964  0.88097339     0.20000
C17         C  0.88311791  0.11786023  0.94018007    -0.54800
C18         C  0.86221615  0.13654731  0.91920216     0.09200
C19         C  0.88489156  0.07345885  0.89608503    -0.54300
C20         C  0.86486273  0.09297951  0.87477711     0.09800
H21         H  0.95477637  0.12253892  0.89903678     0.14300
H22         H  0.85145719  0.14697404  0.86449575     0.00000
H23         H  0.88307010  0.12135364  0.96763962     0.14600
H24         H  0.88500391  0.04574807  0.89512236     0.14400
C25         C  0.91672342  0.90513127  0.09237747     0.86200
C26         C  0.89807486  0.92386182  0.12146293    -0.54100
C27         C  0.87991208  0.90304398  0.14290968     0.09100
C28         C  0.88126436  0.86513870  0.13266954     0.20000
C29         C  0.93779700  0.87691700  0.11080058    -0.54800
C30         C  0.91926881  0.85589844  0.13173022     0.09200
C31         C  0.88762099  0.88489310  0.07419593    -0.54300
C32         C  0.86907292  0.86417117  0.09518762     0.09800
H33         H  0.89890146  0.95139639  0.12449862     0.14300
H34         H  0.86649129  0.84817760  0.14971245     0.00000
H35         H  0.96510782  0.87410202  0.10779241     0.14600
H36         H  0.88135157  0.88605945  0.04724414     0.14400
C37         C  0.09701594  0.92645489  0.90835098     0.86200
C38         C  0.07581212  0.90379017  0.88354300    -0.54100
C39         C  0.09458785  0.88251595  0.86331175     0.09100
C40         C  0.13309138  0.88541910  0.87005316     0.20000
C41         C  0.11963754  0.90090786  0.92847774    -0.54800
C42         C  0.13831494  0.87935840  0.90871212     0.09200
C43         C  0.12333067  0.94468067  0.88519642    -0.54300
C44         C  0.14143080  0.92336611  0.86447716     0.09800
H45         H  0.04817658  0.90449415  0.88234370     0.14300
H46         H  0.14838461  0.86791495  0.85414334     0.00000
H47         H  0.12126569  0.90041143  0.95624654     0.14600
H48         H  0.13033710  0.97110755  0.88662987     0.14400
C49         C  0.00109305  0.00025812  0.00384480    -0.02800
C50         C  0.74843376  0.72439432  0.57292375     0.02800
C51         C  0.78361248  0.71712511  0.57007664    -0.13400
C52         C  0.80697702  0.74363732  0.56394619     0.00300
C53         C  0.79505404  0.77687931  0.56033552    -0.11900
C54         C  0.76080863  0.78470274  0.56340977     0.02800
C55         C  0.73723795  0.75857278  0.56959620    -0.11300
H56         H  0.79262343  0.69105754  0.57202765     0.08400
H57         H  0.81276327  0.79720577  0.55406193     0.05900
H58         H  0.71044791  0.76477872  0.57162499     0.05800
C59         C  0.54821645  0.73257331  0.73192365     0.02800
C60         C  0.54009549  0.76594101  0.72046912    -0.13400
C61         C  0.53304199  0.79182497  0.74432586     0.00300
C62         C  0.53419800  0.78419505  0.77922720    -0.11900
C63         C  0.54197636  0.75158633  0.79113169     0.02800
C64         C  0.54892705  0.72567222  0.76751000    -0.11300
H65         H  0.54014065  0.77190664  0.69338854     0.08400
H66         H  0.52910912  0.80417849  0.79763832     0.05900
H67         H  0.55562213  0.70040383  0.77679276     0.05800
C68         C  0.46737463  0.74113121  0.26803943     0.02800
C69         C  0.46587218  0.73374969  0.23242417    -0.13400
C70         C  0.47242003  0.75941739  0.20800728     0.00300
C71         C  0.47794700  0.79269767  0.21892718    -0.11900
C72         C  0.48236657  0.80032553  0.25334865     0.02800
C73         C  0.47790502  0.77443686  0.27798236    -0.11300
H74         H  0.46004223  0.70825659  0.22356993     0.08400
H75         H  0.48136796  0.81275277  0.19998999     0.05900
H76         H  0.48319613  0.78027016  0.30451048     0.05800
C77         C  0.74320671  0.43200043  0.27993676     0.02800
C78         C  0.73702960  0.43574779  0.24436737    -0.13400
C79         C  0.76407181  0.44294015  0.22211538     0.00300
C80         C  0.79684475  0.44683502  0.23557142    -0.11900
C81         C  0.80321705  0.44364949  0.27056316     0.02800
C82         C  0.77648714  0.43681639  0.29288382    -0.11300
H83         H  0.71145467  0.43295348  0.23406142     0.08400
H84         H  0.81762884  0.45338454  0.21868703     0.05900
H85         H  0.78155417  0.43551222  0.32017171     0.05800
O86         O  0.49180016  0.73017255  0.04635643    -0.74800
O87         O  0.51678186  0.72697338  0.95277859    -0.74800
O88         O  0.55142305  0.72264031  0.01300309    -0.74800
O89         O  0.45775589  0.73715516  0.98594108    -0.74900
O90         O  0.46660951  0.79344437  0.98803610    -0.74800
O91         O  0.55920253  0.77906322  0.01110915    -0.74800
O92         O  0.52423017  0.78341480  0.95165004    -0.74800
O93         O  0.50200136  0.78623387  0.04760039    -0.74800
Ni94       Ni  0.50409485  0.72719842  0.99951716     1.25400
Ni95       Ni  0.51323101  0.78756520  0.99958890     1.25400
C96         C  0.49372602  0.75823305  0.06269324     0.87400
C97         C  0.52449463  0.75424458  0.93664317     0.87400
C98         C  0.57070221  0.74900838  0.01605383     0.87400
C99         C  0.44700646  0.76803263  0.98285907     0.87500
O100        O  0.73109314  0.48814545  0.06532566    -0.74800
O101        O  0.72533428  0.50139854  0.96869192    -0.74800
O102        O  0.72457574  0.44619255  0.01116239    -0.74800
O103        O  0.73397721  0.54326846  0.02291383    -0.74900
O104        O  0.79051472  0.53754930  0.02088129    -0.74800
O105        O  0.78104875  0.44217048  0.00682536    -0.74800
O106        O  0.78181537  0.49704570  0.96493795    -0.74800
O107        O  0.78742797  0.48166544  0.06247841    -0.74800
Ni108      Ni  0.72672287  0.49501065  0.01716218     1.25400
Ni109      Ni  0.78723129  0.48958426  0.01367144     1.25400
C110        C  0.75975331  0.48168348  0.07972964     0.87400
C111        C  0.75234764  0.50123266  0.95079583     0.87400
C112        C  0.75166412  0.42835623  0.00695214     0.87400
C113        C  0.76403486  0.55614959  0.02376671     0.87500
C114        C  0.77244150  0.75984432  0.05254566     0.02800
C115        C  0.73712309  0.76622438  0.05111070    -0.13400
C116        C  0.71419429  0.73978335  0.04357331     0.00300
C117        C  0.72645050  0.70701955  0.03790010    -0.11900
C118        C  0.76124562  0.70008885  0.03887623     0.02800
C119        C  0.78440565  0.72631518  0.04683735    -0.11300
H120        H  0.72750572  0.79175475  0.05549647     0.08400
H121        H  0.70864638  0.68663899  0.03191833     0.05900
H122        H  0.81138166  0.72068359  0.04857595     0.05800
C123        C  0.73396444  0.53287893  0.74587906     0.02800
C124        C  0.72602559  0.52220205  0.77963301    -0.13400
C125        C  0.75189519  0.51843440  0.80465310     0.00300
C126        C  0.78558999  0.52460840  0.79577542    -0.11900
C127        C  0.79440369  0.53335247  0.76249428     0.02800
C128        C  0.76870288  0.53741076  0.73744114    -0.11300
H129        H  0.69998998  0.51661811  0.78647718     0.08400
H130        H  0.80552691  0.52188647  0.81506827     0.05900
H131        H  0.77578441  0.54484959  0.71176550     0.05800
C132        C  0.26942222  0.74522667  0.44213371     0.02800
C133        C  0.27859916  0.78013291  0.44389968    -0.13400
C134        C  0.25398585  0.80509021  0.45111524     0.00300
C135        C  0.22039567  0.79501960  0.45620709    -0.11900
C136        C  0.21032469  0.76116780  0.45255127     0.02800
C137        C  0.23491759  0.73592428  0.44618909    -0.11300
H138        H  0.30465959  0.78778149  0.43927319     0.08400
H139        H  0.20143258  0.81407506  0.46257011     0.05900
H140        H  0.22715896  0.70952349  0.44346282     0.05800
O141        O  0.99226815  0.78672668  0.45775433    -0.74800
O142        O  0.02042515  0.78538938  0.55106913    -0.74800
O143        O  0.05339314  0.78618714  0.49031532    -0.74800
O144        O  0.95952608  0.78308343  0.51884667    -0.74900
O145        O  0.96135734  0.72623880  0.51559303    -0.74800
O146        O  0.05419243  0.72919110  0.49140759    -0.74800
O147        O  0.01970145  0.72836263  0.55124194    -0.74800
O148        O  0.99447793  0.72979383  0.45581453    -0.74800
Ni149      Ni  0.00638339  0.78745507  0.50444060     1.25400
Ni150      Ni  0.00763199  0.72639802  0.50337472     1.25400
C151        C  0.98886047  0.75881857  0.44135916     0.87400
C152        C  0.02304732  0.75696411  0.56690931     0.87400
C153        C  0.06918372  0.75767156  0.48677577     0.87400
C154        C  0.94542687  0.75362687  0.52245003     0.87500
O155        O  0.04939307  0.49561565  0.73070665    -0.74800
O156        O  0.95536573  0.51680293  0.73113433    -0.74800
O157        O  0.01342332  0.55482812  0.73263910    -0.74800
O158        O  0.99218433  0.45838346  0.73237882    -0.74900
O159        O  0.99203156  0.45913401  0.78949408    -0.74800
O160        O  0.01430306  0.55337811  0.78971336    -0.74800
O161        O  0.95524983  0.51744257  0.78821492    -0.74800
O162        O  0.05122352  0.49393635  0.78762740    -0.74800
Ni163      Ni  0.00254473  0.50658069  0.72970175     1.25400
Ni164      Ni  0.00330828  0.50610496  0.79083515     1.25400
C165        C  0.06576366  0.49010829  0.75846138     0.87400
C166        C  0.93949140  0.51978162  0.75922249     0.87400
C167        C  0.01726078  0.56983820  0.76168142     0.87400
C168        C  0.98873987  0.44313998  0.76135356     0.87500
C169        C  0.04508251  0.77550681  0.77154138     0.02800
C170        C  0.04416038  0.74105849  0.78287516    -0.13400
C171        C  0.03673943  0.71469325  0.75951913     0.00300
C172        C  0.03049750  0.72273867  0.72531633    -0.11900
C173        C  0.03078121  0.75628174  0.71351496     0.02800
C174        C  0.03846197  0.78272260  0.73654397    -0.11300
H175        H  0.05032865  0.73470439  0.80922144     0.08400
H176        H  0.02598994  0.70219516  0.70727367     0.05900
H177        H  0.03944966  0.80879328  0.72721214     0.05800
C178        C  0.26578066  0.45417145  0.73863596     0.02800
C179        C  0.27691413  0.46894517  0.76958469    -0.13400
C180        C  0.25322532  0.47814008  0.79440233     0.00300
C181        C  0.21886939  0.47103131  0.78914193    -0.11900
C182        C  0.20712926  0.45601631  0.75902983     0.02800
C183        C  0.23065642  0.44777112  0.73340038    -0.11300
H184        H  0.30374693  0.47396523  0.77399454     0.08400
H185        H  0.20077951  0.47832338  0.80857690     0.05900
H186        H  0.22170773  0.43681129  0.70953393     0.05800
C187        C  0.71872994  0.25209974  0.45682741     0.02800
C188        C  0.75319005  0.26160234  0.46212288    -0.13400
C189        C  0.77798247  0.23678784  0.46994060     0.00300
C190        C  0.76884013  0.20255761  0.47065268    -0.11900
C191        C  0.73556689  0.19219994  0.46430219     0.02800
C192        C  0.71013297  0.21688931  0.45818557    -0.11300
H193        H  0.76082464  0.28806343  0.46003135     0.08400
H194        H  0.78816003  0.18340348  0.47622894     0.05900
H195        H  0.68404385  0.20871384  0.45422715     0.05800
O196        O  0.78101520  0.97644162  0.46224111    -0.74800
O197        O  0.78286076  0.00237071  0.55560185    -0.74800
O198        O  0.78419173  0.94212414  0.52259661    -0.74800
O199        O  0.77637076  0.03699524  0.49547911    -0.74900
O200        O  0.71997131  0.03249566  0.50027983    -0.74800
O201        O  0.72744503  0.93845486  0.52050522    -0.74800
O202        O  0.72657118  0.99534011  0.55859784    -0.74800
O203        O  0.72415068  0.97534759  0.46202477    -0.74800
Ni204      Ni  0.78320162  0.98966283  0.50885380     1.25400
Ni205      Ni  0.72250473  0.98530426  0.51037305     1.25400
C206        C  0.75270878  0.97238322  0.44652281     0.87400
C207        C  0.75551765  0.00200304  0.57282234     0.87400
C208        C  0.75648302  0.92496480  0.52597785     0.87400
C209        C  0.74636842  0.05028253  0.49421033     0.87500
O210        O  0.49208902  0.04737327  0.70657863    -0.74800
O211        O  0.51434875  0.95291580  0.70932544    -0.74800
O212        O  0.45547716  0.98877540  0.70507487    -0.74800
O213        O  0.55086672  0.01193221  0.71344838    -0.74900
O214        O  0.54590471  0.01006027  0.77028231    -0.74800
O215        O  0.45182214  0.99091981  0.76197499    -0.74800
O216        O  0.50816081  0.95214953  0.76602790    -0.74800
O217        O  0.48876033  0.04849447  0.76349568    -0.74800
Ni218      Ni  0.50345488  0.00021659  0.70652903     1.25400
Ni219      Ni  0.49866183  0.00041442  0.76746638     1.25400
C220        C  0.48633941  0.06346973  0.73423357     0.87400
C221        C  0.51352726  0.93665983  0.73767057     0.87400
C222        C  0.43803274  0.98656122  0.73265925     0.87400
C223        C  0.56379557  0.01479059  0.74368203     0.87500
C224        C  0.76545858  0.04325462  0.77511854     0.02800
C225        C  0.73024949  0.04532374  0.78202112    -0.13400
C226        C  0.70628799  0.03904291  0.75579442     0.00300
C227        C  0.71732790  0.03101057  0.72320213    -0.11900
C228        C  0.75172342  0.02681636  0.71629754     0.02800
C229        C  0.77599861  0.03371114  0.74199277    -0.11300
H230        H  0.72157780  0.05243303  0.80721474     0.08400
H231        H  0.69858856  0.02656926  0.70305432     0.05900
H232        H  0.80286272  0.03165003  0.73630570     0.05800
C233        C  0.44513857  0.26569570  0.71659437     0.02800
C234        C  0.45089372  0.23123166  0.70788136    -0.13400
C235        C  0.46066985  0.20757282  0.73326228     0.00300
C236        C  0.46594958  0.21878425  0.76668618    -0.11900
C237        C  0.45823713  0.25206167  0.77634030     0.02800
C238        C  0.44823404  0.27581802  0.75114297    -0.11300
H239        H  0.44718338  0.22284191  0.68173841     0.08400
H240        H  0.47431939  0.20061371  0.78609126     0.05900
H241        H  0.44192756  0.30170854  0.75839381     0.05800
O242        O  0.28025770  0.52304149  0.04869017    -0.74800
O243        O  0.28580732  0.51374030  0.95283009    -0.74800
O244        O  0.28520527  0.56764208  0.99641896    -0.74800
O245        O  0.27793984  0.46959942  0.00572041    -0.74900
O246        O  0.22142800  0.47448254  0.00086586    -0.74800
O247        O  0.22859329  0.57056534  0.99151998    -0.74800
O248        O  0.22926945  0.51766481  0.94748178    -0.74800
O249        O  0.22361137  0.52761740  0.04525027    -0.74800
Ni250      Ni  0.28435241  0.51840469  0.00097210     1.25400
Ni251      Ni  0.22369011  0.52271787  0.99610947     1.25400
C252        C  0.25149371  0.52696636  0.06281420     0.87400
C253        C  0.25884453  0.51351449  0.93439289     0.87400
C254        C  0.25759877  0.58509898  0.99295964     0.87400
C255        C  0.24803960  0.45617773  0.00490452     0.87500
C256        C  0.24416453  0.78875131  0.96092765     0.02800
C257        C  0.23649849  0.75501331  0.97119109    -0.13400
C258        C  0.26268240  0.73111757  0.97703114     0.00300
C259        C  0.29643092  0.74170658  0.97430600    -0.11900
C260        C  0.30456869  0.77514875  0.96537619     0.02800
C261        C  0.27855879  0.79872109  0.95818076    -0.11300
H262        H  0.21018662  0.74724974  0.97381430     0.08400
H263        H  0.31689179  0.72349880  0.97864290     0.05900
H264        H  0.28507668  0.82422779  0.94966378     0.05800
O265        O  0.01182868  0.44465952  0.24539868    -0.74800
O266        O  0.99306089  0.53938542  0.24063844    -0.74800
O267        O  0.05051874  0.50088415  0.24079217    -0.74800
O268        O  0.95491428  0.48216158  0.24792508    -0.74900
O269        O  0.95949809  0.48647802  0.30478640    -0.74800
O270        O  0.05418503  0.50407070  0.29776728    -0.74800
O271        O  0.99816145  0.54380483  0.29740428    -0.74800
O272        O  0.01613907  0.44680884  0.30231513    -0.74800
Ni273      Ni  0.00237094  0.49181224  0.24168840     1.25400
Ni274      Ni  0.00702600  0.49547079  0.30267535     1.25400
C275        C  0.01725080  0.42999491  0.27411347     0.87400
C276        C  0.99314071  0.55738407  0.26773551     0.87400
C277        C  0.06803308  0.50488041  0.26845471     0.87400
C278        C  0.94188949  0.48053588  0.27784355     0.87500
C279        C  0.96558687  0.75970509  0.23578652     0.02800
C280        C  0.96383377  0.77148789  0.26985307    -0.13400
C281        C  0.97022885  0.74906541  0.29733899     0.00300
C282        C  0.97830791  0.71512521  0.29082281    -0.11900
C283        C  0.98014874  0.70278086  0.25753458     0.02800
C284        C  0.97323724  0.72492624  0.22985647    -0.11300
H285        H  0.95685511  0.79772256  0.27497130     0.08400
H286        H  0.98291095  0.69783790  0.31217551     0.05900
H287        H  0.97392514  0.71522517  0.20395435     0.05800
C288        C  0.26877800  0.54196574  0.26745478     0.02800
C289        C  0.27579077  0.54348219  0.23223079    -0.13400
C290        C  0.25069462  0.53421118  0.20832134     0.00300
C291        C  0.21882779  0.52373638  0.21926364    -0.11900
C292        C  0.21146743  0.52162719  0.25398265     0.02800
C293        C  0.23634803  0.53114246  0.27819756    -0.11300
H294        H  0.30020553  0.55268143  0.22342861     0.08400
H295        H  0.19926425  0.51785856  0.20034949     0.05900
H296        H  0.23037804  0.53051631  0.30519824     0.05800
O297        O  0.50314821  0.29007073  0.03182034    -0.74800
O298        O  0.48227741  0.28712771  0.93674567    -0.74800
O299        O  0.44474203  0.29246036  0.99417261    -0.74800
O300        O  0.54025495  0.28205640  0.97441373    -0.74900
O301        O  0.53412087  0.22562470  0.97929460    -0.74800
O302        O  0.43991354  0.23564351  0.99541576    -0.74800
O303        O  0.47787446  0.23041287  0.93896295    -0.74800
O304        O  0.49601929  0.23365215  0.03610790    -0.74800
Ni305      Ni  0.49281054  0.28999171  0.98418340     1.25400
Ni306      Ni  0.48684763  0.22931259  0.98757588     1.25400
C307        C  0.50273446  0.26276063  0.04970122     0.87400
C308        C  0.47653112  0.25863452  0.92207166     0.87400
C309        C  0.42674648  0.26525074  0.99758716     0.87400
C310        C  0.55276908  0.25171149  0.97409454     0.87500
C311        C  0.75614699  0.23017546  0.96109546     0.02800
C312        C  0.72162785  0.22252277  0.95385902    -0.13400
C313        C  0.69606430  0.24596854  0.96228721     0.00300
C314        C  0.70470373  0.27677118  0.97771521    -0.11900
C315        C  0.73836510  0.28447055  0.98592576     0.02800
C316        C  0.76399776  0.26077013  0.97842919    -0.11300
H317        H  0.71468066  0.19897343  0.94114481     0.08400
H318        H  0.68486336  0.29533767  0.98266720     0.05900
H319        H  0.79010444  0.26669595  0.98535108     0.05800
O320        O  0.46921326  0.01601222  0.21263627    -0.74800
O321        O  0.56367407  0.99517780  0.21652704    -0.74800
O322        O  0.50664383  0.95762520  0.21963725    -0.74800
O323        O  0.52727969  0.05410110  0.21251227    -0.74900
O324        O  0.52680916  0.05708168  0.26945790    -0.74800
O325        O  0.50456533  0.96298273  0.27640981    -0.74800
O326        O  0.56352757  0.99861748  0.27356318    -0.74800
O327        O  0.46786851  0.02169468  0.26938242    -0.74800
Ni328      Ni  0.51663563  0.00562923  0.21326474     1.25400
Ni329      Ni  0.51563714  0.01021960  0.27422001     1.25400
C330        C  0.45300062  0.02282951  0.23988900     0.87400
C331        C  0.57902391  0.99296645  0.24533148     0.87400
C332        C  0.50287340  0.94455486  0.24962913     0.87400
C333        C  0.53049123  0.07136965  0.24034624     0.87500
C334        C  0.77869612  0.94285298  0.24303814     0.02800
C335        C  0.74490824  0.94714347  0.23072847    -0.13400
C336        C  0.71850225  0.95392730  0.25355081     0.00300
C337        C  0.72506036  0.95401713  0.28846586    -0.11900
C338        C  0.75801578  0.95071956  0.30150091     0.02800
C339        C  0.78505336  0.94492431  0.27880868    -0.11300
H340        H  0.73914662  0.94561300  0.20362544     0.08400
H341        H  0.70416026  0.95871835  0.30579639     0.05900
H342        H  0.81083896  0.94297030  0.28876829     0.05800
C343        C  0.54604400  0.27793789  0.25230053     0.02800
C344        C  0.53708487  0.28819661  0.21862992    -0.13400
C345        C  0.53078016  0.26352998  0.19328685     0.00300
C346        C  0.53367511  0.22897370  0.20137074    -0.11900
C347        C  0.54259659  0.21807182  0.23427100     0.02800
C348        C  0.54875099  0.24266634  0.25987397    -0.11300
H349        H  0.53472857  0.31506264  0.21231656     0.08400
H350        H  0.52850109  0.21019807  0.18163084     0.05900
H351        H  0.55601653  0.23447073  0.28544619     0.05800
O352        O  0.22874105  0.02130867  0.43931027    -0.74800
O353        O  0.21788324  0.00318969  0.53404320    -0.74800
O354        O  0.22297175  0.06080294  0.49509939    -0.74800
O355        O  0.22612515  0.96419430  0.47746036    -0.74900
O356        O  0.28233652  0.96491278  0.48609148    -0.74800
O357        O  0.27949857  0.06106279  0.50145204    -0.74800
O358        O  0.27423527  0.00507800  0.54216651    -0.74800
O359        O  0.28534742  0.02049167  0.44543800    -0.74800
Ni360      Ni  0.22192346  0.01235132  0.48638321     1.25400
Ni361      Ni  0.28239919  0.01292502  0.49416767     1.25400
C362        C  0.25842943  0.02316179  0.42659545     0.87400
C363        C  0.24394823  0.00141671  0.55374200     0.87400
C364        C  0.25106517  0.07693675  0.50022166     0.87400
C365        C  0.25511614  0.94895906  0.47777695     0.87500
C366        C  0.23628780  0.95622686  0.75548654     0.02800
C367        C  0.27195993  0.95778405  0.76046730    -0.13400
C368        C  0.29355879  0.96417168  0.73276366     0.00300
C369        C  0.27961888  0.97006449  0.70048510    -0.11900
C370        C  0.24453764  0.97054230  0.69515094     0.02800
C371        C  0.22265801  0.96316358  0.72243458    -0.11300
H372        H  0.28293182  0.95440248  0.78580458     0.08400
H373        H  0.29637363  0.97574353  0.67928890     0.05900
H374        H  0.19538061  0.96302602  0.71798134     0.05800
O375        O  0.99730236  0.21305512  0.46588603    -0.74800
O376        O  0.97575701  0.22349024  0.55931929    -0.74800
O377        O  0.93861210  0.21565366  0.50189459    -0.74800
O378        O  0.03441658  0.22400909  0.52367870    -0.74900
O379        O  0.02957849  0.28048313  0.51799690    -0.74800
O380        O  0.93655082  0.27193882  0.49272226    -0.74800
O381        O  0.96997383  0.27980697  0.55290225    -0.74800
O382        O  0.99612435  0.26960625  0.45833089    -0.74800
Ni383      Ni  0.98666596  0.21703077  0.51291087     1.25400
Ni384      Ni  0.98294323  0.27751016  0.50521254     1.25400
C385        C  0.00084678  0.23925436  0.44684305     0.87400
C386        C  0.96856862  0.25268182  0.57155882     0.87400
C387        C  0.92192397  0.24295933  0.49427216     0.87400
C388        C  0.04768037  0.25406130  0.52400099     0.87500
C389        C  0.94241216  0.24280338  0.77580508     0.02800
C390        C  0.95302940  0.27600492  0.78496180    -0.13400
C391        C  0.95916362  0.30052589  0.75943124     0.00300
C392        C  0.95353804  0.29225575  0.72522904    -0.11900
C393        C  0.94405198  0.25944531  0.71553119     0.02800
C394        C  0.93824890  0.23456095  0.74089679    -0.11300
H395        H  0.95671515  0.28256364  0.81165678     0.08400
H396        H  0.95810439  0.31142360  0.70566121     0.05900
H397        H  0.93060869  0.20901378  0.73356053     0.05800
C398        C  0.25145342  0.28063062  0.54029373     0.02800
C399        C  0.21603455  0.28636405  0.54351626    -0.13400
C400        C  0.19276424  0.25944865  0.53928527     0.00300
C401        C  0.20466804  0.22728050  0.53031030    -0.11900
C402        C  0.23932755  0.22084257  0.52627808     0.02800
C403        C  0.26288517  0.24748638  0.53168783    -0.11300
H404        H  0.20661847  0.31152986  0.54988246     0.08400
H405        H  0.18646477  0.20680821  0.52623305     0.05900
H406        H  0.28986557  0.24231506  0.52967208     0.05800
C407        C  0.05581262  0.22840742  0.24868566     0.02800
C408        C  0.04873697  0.21468246  0.28144801    -0.13400
C409        C  0.03812047  0.23634295  0.30788339     0.00300
C410        C  0.03399226  0.27106043  0.30160080    -0.11900
C411        C  0.04135996  0.28525796  0.26993668     0.02800
C412        C  0.05176808  0.26393288  0.24316422    -0.11300
H413        H  0.05217808  0.18767498  0.28650025     0.08400
H414        H  0.02565420  0.28753889  0.32216552     0.05900
H415        H  0.05689665  0.27495667  0.21828469     0.05800
C416        C  0.25007585  0.06234884  0.22296435     0.02800
C417        C  0.24166988  0.05520046  0.25735635    -0.13400
C418        C  0.26727515  0.04700795  0.28156778     0.00300
C419        C  0.30104609  0.04578496  0.27109869    -0.11900
C420        C  0.30999080  0.05146058  0.23720856     0.02800
C421        C  0.28449261  0.05965106  0.21282574    -0.11300
H422        H  0.21526820  0.05572913  0.26505211     0.08400
H423        H  0.32097901  0.04001738  0.28972241     0.05900
H424        H  0.29139813  0.06449760  0.18649444     0.05800
C425        C  0.22453181  0.25146072  0.03191511     0.02800
C426        C  0.21452085  0.28625991  0.02756482    -0.13400
C427        C  0.23906924  0.31169434  0.02100562     0.00300
C428        C  0.27276478  0.30246706  0.01636913    -0.11900
C429        C  0.28344938  0.26911117  0.02125272     0.02800
C430        C  0.25976292  0.24374322  0.03001066    -0.11300
H431        H  0.18813871  0.29380873  0.02974070     0.08400
H432        H  0.29139456  0.32200963  0.01024373     0.05900
H433        H  0.26910444  0.21844719  0.03610273     0.05800
C434        C  0.39967831  0.42236674  0.58440078     0.86200
C435        C  0.42040729  0.39292137  0.60102859    -0.54100
C436        C  0.40190797  0.37146882  0.62138307     0.09100
C437        C  0.36393440  0.38078853  0.62267312     0.20000
C438        C  0.37025245  0.40384210  0.56526279    -0.54800
C439        C  0.35143090  0.38200664  0.58522104     0.09200
C440        C  0.38255031  0.43938372  0.61558635    -0.54300
C441        C  0.36335909  0.41781785  0.63494912     0.09800
H442        H  0.44747838  0.38948846  0.59695719     0.14300
H443        H  0.34915522  0.36329289  0.63918765     0.00000
H444        H  0.36527545  0.40733560  0.53808810     0.14600
H445        H  0.38621525  0.46531080  0.62379422     0.14400
C446        C  0.58530675  0.40842917  0.41345109     0.86200
C447        C  0.61416472  0.42557120  0.39285439    -0.54100
C448        C  0.63178570  0.40373192  0.37224563     0.09100
C449        C  0.61960070  0.36670772  0.37430469     0.20000
C450        C  0.56339619  0.38964875  0.38589372    -0.54800
C451        C  0.58154846  0.36811700  0.36515401     0.09200
C452        C  0.60380152  0.37865712  0.43276276    -0.54300
C453        C  0.62168500  0.35694600  0.41225902     0.09800
H454        H  0.62024765  0.45254536  0.39471656     0.14300
H455        H  0.63442699  0.34940379  0.35768978     0.00000
H456        H  0.53627754  0.39399391  0.38245699     0.14600
H457        H  0.60342780  0.37430039  0.46004866     0.14400
C458        C  0.59578333  0.58199594  0.59330101     0.86200
C459        C  0.57771797  0.60724428  0.61781117    -0.54100
C460        C  0.59879266  0.62496489  0.64018624     0.09100
C461        C  0.63628793  0.61473796  0.63537890     0.20000
C462        C  0.62330998  0.60438443  0.57564883    -0.54800
C463        C  0.64404320  0.62192615  0.59770743     0.09200
C464        C  0.61707377  0.55857166  0.61726497    -0.54300
C465        C  0.63796634  0.57567010  0.63953590     0.09800
H466        H  0.55029487  0.61029690  0.61702981     0.14300
H467        H  0.65449061  0.62798524  0.65168945     0.00000
H468        H  0.62782110  0.60547737  0.54850057     0.14600
H469        H  0.61539758  0.53090405  0.61696222     0.14400
C470        C  0.41172142  0.59507004  0.40812954     0.86200
C471        C  0.38402555  0.57653574  0.38726744    -0.54100
C472        C  0.36763738  0.59626450  0.36371505     0.09100
C473        C  0.37879888  0.63376130  0.36397767     0.20000
C474        C  0.43472293  0.61305008  0.38189162    -0.54800
C475        C  0.41781527  0.63385921  0.35925549     0.09200
C476        C  0.39109433  0.62504566  0.42432707    -0.54300
C477        C  0.37316634  0.64547839  0.40113449     0.09800
H478        H  0.37623142  0.55039103  0.39185100     0.14300
H479        H  0.36498574  0.64767960  0.34374926     0.00000
H480        H  0.46233611  0.61164356  0.38308538     0.14600
H481        H  0.38973953  0.62875887  0.45173275     0.14400
C482        C  0.49906636  0.50398132  0.49954599    -0.02800
C483        C  0.44680951  0.58411794  0.46303429    -0.09500
C484        C  0.43247865  0.57108410  0.43265784     0.06700
C485        C  0.44023871  0.53635798  0.42516254    -0.03300
C486        C  0.45783899  0.51576012  0.44902550    -0.07700
C487        C  0.47567437  0.52929354  0.47745534     0.05800
C488        C  0.46760622  0.56432597  0.48527446    -0.02700
Br489      Br  0.47912635  0.58824188  0.52686747    -0.02400
H490        H  0.44228771  0.61051619  0.46959876     0.09700
H491        H  0.46030081  0.48886586  0.44333526     0.07800
Br492      Br  0.43328362  0.51520338  0.38122653    -0.02900
C493        C  0.57073319  0.56603234  0.53334616    -0.09500
C494        C  0.57051420  0.56201284  0.56930640     0.06700
C495        C  0.54574356  0.53915016  0.58238715    -0.03300
C496        C  0.52355177  0.52092936  0.56036016    -0.07700
C497        C  0.52383230  0.52471294  0.52417805     0.05800
C498        C  0.54850945  0.54810853  0.51127248    -0.02700
Br499      Br  0.55226326  0.56014450  0.46369778    -0.02400
H500        H  0.58754307  0.58394637  0.52130882     0.09700
H501        H  0.50653163  0.50303185  0.57234187     0.07800
Br502      Br  0.54022888  0.53129127  0.63058880    -0.02900
C503        C  0.56543505  0.43334465  0.47195342    -0.09500
C504        C  0.56502540  0.43463313  0.43575768     0.06700
C505        C  0.54614421  0.46193652  0.42093879    -0.03300
C506        C  0.52733360  0.48470863  0.44129054    -0.07700
C507        C  0.52417984  0.48103633  0.47733986     0.05800
C508        C  0.54590423  0.45556436  0.49234591    -0.02700
Br509      Br  0.54873331  0.44635267  0.54063846    -0.02400
H510        H  0.58068260  0.41484337  0.48549670     0.09700
H511        H  0.51557126  0.50576405  0.42789798     0.07800
Br512      Br  0.54440565  0.47037158  0.37253251    -0.02900
C513        C  0.44938439  0.49809333  0.54163399    -0.09500
C514        C  0.47201826  0.48120874  0.51938706     0.06700
C515        C  0.46466209  0.44563696  0.51427266    -0.03300
C516        C  0.44192903  0.42823942  0.53594805    -0.07700
C517        C  0.42204364  0.44497495  0.56050243     0.05800
C518        C  0.42387118  0.48124659  0.56024398    -0.02700
Br519      Br  0.38912556  0.51122451  0.57698718    -0.02400
H520        H  0.45062929  0.52546816  0.54376111     0.09700
H521        H  0.43856050  0.40099627  0.53252158     0.07800
Br522      Br  0.47747308  0.41857842  0.47547123    -0.02900
C523        C  0.27108688  0.32666407  0.57968285    -0.09500
C524        C  0.27614214  0.30842718  0.54935066     0.06700
C525        C  0.30446266  0.31716121  0.52905497    -0.03300
C526        C  0.32802673  0.34181042  0.54056082    -0.07700
C527        C  0.32368107  0.35900292  0.57181103     0.05800
C528        C  0.29384162  0.35194976  0.59062329    -0.02700
Br529      Br  0.28027237  0.37711835  0.63011023    -0.02400
H530        H  0.24915562  0.32108400  0.59532067     0.09700
H531        H  0.35019591  0.34708664  0.52518416     0.07800
Br532      Br  0.31124995  0.29791501  0.48458130    -0.02900
C533        C  0.10056457  0.23958349  0.55653310    -0.09500
C534        C  0.08445671  0.25880690  0.53072323     0.06700
C535        C  0.10390981  0.28239750  0.51155119    -0.03300
C536        C  0.13909334  0.28475704  0.51704946    -0.07700
C537        C  0.15545642  0.26401958  0.54142408     0.05800
C538        C  0.13569030  0.24230833  0.56224110    -0.02700
Br539      Br  0.15578959  0.21516408  0.59819477    -0.02400
H540        H  0.08584815  0.22214790  0.57208321     0.09700
H541        H  0.15404351  0.30107752  0.50054558     0.07800
Br542      Br  0.08487962  0.30933216  0.47479667    -0.02900
C543        C  0.04504619  0.24079769  0.40250515    -0.09500
C544        C  0.01136046  0.23377304  0.41140801     0.06700
C545        C  0.98894958  0.21966516  0.38689019    -0.03300
C546        C  0.99955790  0.21589205  0.35299403    -0.07700
C547        C  0.03260038  0.22537211  0.34346148     0.05800
C548        C  0.05582293  0.23644987  0.36887392    -0.02700
Br549      Br  0.10141453  0.24976885  0.35770020    -0.02400
H550        H  0.06278351  0.25044906  0.42157370     0.09700
H551        H  0.98120465  0.20823431  0.33358513     0.07800
Br552      Br  0.94288161  0.20811351  0.39803959    -0.02900
C553        C  0.97641150  0.23093094  0.63036009    -0.09500
C554        C  0.95946067  0.25369308  0.60805641     0.06700
C555        C  0.93332187  0.27446338  0.62090558    -0.03300
C556        C  0.92604838  0.27343379  0.65591545    -0.07700
C557        C  0.94451042  0.25199997  0.67851264     0.05800
C558        C  0.96932837  0.23001795  0.66520734    -0.02700
Br559      Br  0.99709803  0.20091028  0.69369799    -0.02400
H560        H  0.99628259  0.21442951  0.62080183     0.09700
H561        H  0.90702176  0.29066149  0.66590417     0.07800
Br562      Br  0.90639692  0.30391553  0.59198702    -0.02900
C563        C  0.27080334  0.12922086  0.53087257    -0.09500
C564        C  0.25105090  0.11444041  0.50457565     0.06700
C565        C  0.23201668  0.13591491  0.48261537    -0.03300
C566        C  0.23167045  0.17108991  0.48818200    -0.07700
C567        C  0.24897744  0.18564800  0.51625052     0.05800
C568        C  0.26926369  0.16440663  0.53738870    -0.02700
Br569      Br  0.29220613  0.18125708  0.57750064    -0.02400
H570        H  0.28618990  0.11312657  0.54749936     0.09700
H571        H  0.21608203  0.18708083  0.47157172     0.07800
Br572      Br  0.20602206  0.11890551  0.44451062    -0.02900
C573        C  0.27718652  0.01059364  0.33299051    -0.09500
C574        C  0.26054912  0.03905448  0.31808528     0.06700
C575        C  0.24271972  0.06155624  0.33953574    -0.03300
C576        C  0.24239092  0.05566102  0.37478132    -0.07700
C577        C  0.26068711  0.02854284  0.38955560     0.05800
C578        C  0.27791000  0.00558600  0.36840327    -0.02700
Br579      Br  0.30188847  0.96664454  0.38649102    -0.02400
H580        H  0.29078454  0.99275765  0.31700957     0.09700
H581        H  0.22852958  0.07301736  0.39093222     0.07800
Br582      Br  0.22100470  0.10244423  0.32348944    -0.02900
C583        C  0.24172564  0.01350718  0.64936581    -0.09500
C584        C  0.23290041  0.98056505  0.66056876     0.06700
C585        C  0.22408263  0.95563100  0.63621643    -0.03300
C586        C  0.22652406  0.96322214  0.60124552    -0.07700
C587        C  0.23859465  0.99516449  0.59034120     0.05800
C588        C  0.24506647  0.02077550  0.61458285    -0.02700
Br589      Br  0.26000800  0.06550042  0.60151601    -0.02400
H590        H  0.24909358  0.03273454  0.66789408     0.09700
H591        H  0.22084330  0.94356985  0.58260298     0.07800
Br592      Br  0.21254867  0.90996441  0.64963469    -0.02900
C593        C  0.53313154  0.30348051  0.30960379    -0.09500
C594        C  0.55271822  0.30376861  0.27964803     0.06700
C595        C  0.57943178  0.32767654  0.27710259    -0.03300
C596        C  0.58667172  0.34979200  0.30438112    -0.07700
C597        C  0.56793578  0.34879128  0.33488105     0.05800
C598        C  0.54037108  0.32573358  0.33697015    -0.02700
Br599      Br  0.51393396  0.32104183  0.37765679    -0.02400
H600        H  0.51255636  0.28523817  0.31204936     0.09700
H601        H  0.60806449  0.36711270  0.30220648     0.07800
Br602      Br  0.60901682  0.32906366  0.23835033    -0.02900
C603        C  0.52010249  0.12884035  0.26431561    -0.09500
C604        C  0.53689166  0.10866348  0.24002609     0.06700
C605        C  0.55928864  0.12462934  0.21710306    -0.03300
C606        C  0.56296735  0.16023369  0.21765369    -0.07700
C607        C  0.54423932  0.18062032  0.24041654     0.05800
C608        C  0.52302409  0.16441952  0.26429728    -0.02700
Br609      Br  0.49447873  0.18940695  0.29490378    -0.02400
H610        H  0.50336652  0.11695861  0.28266462     0.09700
H611        H  0.57958394  0.17227594  0.19923452     0.07800
Br612      Br  0.58612450  0.09921834  0.18534835    -0.02900
C613        C  0.39460518  0.01092555  0.21763136    -0.09500
C614        C  0.41664898  0.03215179  0.23653781     0.06700
C615        C  0.40376443  0.06249159  0.25055772    -0.03300
C616        C  0.36923962  0.07053420  0.24655270    -0.07700
C617        C  0.34668283  0.04828457  0.22955964     0.05800
C618        C  0.35973582  0.01837132  0.21472297    -0.02700
Br619      Br  0.33038641  0.98508914  0.19388738    -0.02400
H620        H  0.40424453  0.98757678  0.20654106     0.09700
H621        H  0.35939831  0.09315231  0.25890172     0.07800
Br622      Br  0.43195649  0.09366092  0.27575161    -0.02900
C623        C  0.62436735  0.95022922  0.23599023    -0.09500
C624        C  0.61511181  0.98356956  0.24519508     0.06700
C625        C  0.64049660  0.00800210  0.25154375    -0.03300
C626        C  0.67471308  0.99856315  0.24991782    -0.07700
C627        C  0.68409847  0.96468608  0.24282741     0.05800
C628        C  0.65867300  0.94049283  0.23542142    -0.02700
Br629      Br  0.66964340  0.89344364  0.22778621    -0.02400
H630        H  0.60482215  0.93144182  0.23050490     0.09700
H631        H  0.69411102  0.01714537  0.25659021     0.07800
Br632      Br  0.62952076  0.05415162  0.26349087    -0.02900
C633        C  0.54755711  0.27911316  0.13437170    -0.09500
C634        C  0.52147458  0.27193527  0.15754790     0.06700
C635        C  0.48882992  0.26341199  0.14486160    -0.03300
C636        C  0.48327189  0.25987324  0.10964437    -0.07700
C637        C  0.50971815  0.26560290  0.08659833     0.05800
C638        C  0.54174359  0.27647529  0.09903589    -0.02700
Br639      Br  0.57887505  0.28557130  0.06880183    -0.02400
H640        H  0.57295961  0.28485576  0.14382122     0.09700
H641        H  0.45827209  0.25255829  0.10023588     0.07800
Br642      Br  0.45155858  0.25501609  0.17506364    -0.02900
C643        C  0.36792581  0.24998020  0.98126878    -0.09500
C644        C  0.39012661  0.26688521  0.00394389     0.06700
C645        C  0.37731140  0.28142844  0.03393243    -0.03300
C646        C  0.34256003  0.27898496  0.04079630    -0.07700
C647        C  0.32014221  0.26276906  0.01773175     0.05800
C648        C  0.33300949  0.24853675  0.98755386    -0.02700
Br649      Br  0.30359150  0.23006543  0.95274139    -0.02400
H650        H  0.37772132  0.23862791  0.95813646     0.09700
H651        H  0.33265562  0.29115543  0.06346227     0.07800
Br652      Br  0.40625830  0.30445038  0.06627014    -0.02900
C653        C  0.60503805  0.26440820  0.94141147    -0.09500
C654        C  0.58918689  0.24617219  0.96772420     0.06700
C655        C  0.60840267  0.22246453  0.98735401    -0.03300
C656        C  0.64334953  0.21925245  0.98199473    -0.07700
C657        C  0.65955590  0.23926539  0.95732882     0.05800
C658        C  0.63995123  0.26084080  0.93591778    -0.02700
Br659      Br  0.66056131  0.28773836  0.90061572    -0.02400
H660        H  0.59037676  0.28191817  0.92553581     0.09700
H661        H  0.65839725  0.20333908  0.99917306     0.07800
Br662      Br  0.58949232  0.19690180  0.02468857    -0.02900
C663        C  0.28426094  0.57973804  0.31602624    -0.09500
C664        C  0.29412646  0.55448379  0.29280920     0.06700
C665        C  0.32789218  0.54217704  0.29408489    -0.03300
C666        C  0.35130278  0.55618346  0.31736399    -0.07700
C667        C  0.34161647  0.58210988  0.33993192     0.05800
C668        C  0.30748166  0.59329185  0.33965788    -0.02700
Br669      Br  0.28998360  0.62473753  0.37234288    -0.02400
H670        H  0.25825714  0.58903093  0.31576574     0.09700
H671        H  0.37725291  0.54674620  0.31791006     0.07800
Br672      Br  0.34288121  0.50493890  0.26627947    -0.02900
C673        C  0.12365711  0.48352559  0.25007219    -0.09500
C674        C  0.10503945  0.50863046  0.26700518     0.06700
C675        C  0.12233822  0.53505373  0.28434504    -0.03300
C676        C  0.15769692  0.53757169  0.28204750    -0.07700
C677        C  0.17620543  0.51347034  0.26348386     0.05800
C678        C  0.15905560  0.48534284  0.24880372    -0.02700
Br679      Br  0.18279403  0.44864336  0.22696548    -0.02400
H680        H  0.11062551  0.46216404  0.23820029     0.09700
H681        H  0.17054393  0.55935726  0.29330510     0.07800
Br682      Br  0.09900706  0.56955637  0.30961366    -0.02900
C683        C  0.05687403  0.34299911  0.29038405    -0.09500
C684        C  0.03852735  0.32274995  0.26687159     0.06700
C685        C  0.01356874  0.33812704  0.24588116    -0.03300
C686        C  0.00694006  0.37301062  0.24909194    -0.07700
C687        C  0.02447474  0.39306188  0.27337479     0.05800
C688        C  0.05001578  0.37783815  0.29386423    -0.02700
Br689      Br  0.07713948  0.40336323  0.32593023    -0.02400
H690        H  0.07597564  0.33130347  0.30690438     0.09700
H691        H  0.98736580  0.38443275  0.23295246     0.07800
Br692      Br  0.98600093  0.31228816  0.21449080    -0.02900
C693        C  0.01606672  0.61543759  0.27539446    -0.09500
C694        C  0.98946756  0.59457646  0.26383778     0.06700
C695        C  0.96210174  0.60934553  0.24531727    -0.03300
C696        C  0.96065164  0.64484047  0.24077120    -0.07700
C697        C  0.98670797  0.66584277  0.25361318     0.05800
C698        C  0.01527711  0.65064241  0.26980294    -0.02700
Br699      Br  0.05383274  0.67699484  0.28488368    -0.02400
H700        H  0.03784596  0.60423614  0.28830797     0.09700
H701        H  0.93834941  0.65618132  0.22872970     0.07800
Br702      Br  0.92512389  0.58243819  0.22766391    -0.02900
C703        C  0.26990297  0.50577069  0.11928569    -0.09500
C704        C  0.25155606  0.53006970  0.10004393     0.06700
C705        C  0.23657561  0.55803205  0.11650378    -0.03300
C706        C  0.23888442  0.56049116  0.15208185    -0.07700
C707        C  0.25618576  0.53548935  0.17138583     0.05800
C708        C  0.27203214  0.50812047  0.15480700    -0.02700
Br709      Br  0.29449579  0.47211893  0.17975890    -0.02400
H710        H  0.28195987  0.48443303  0.10664436     0.09700
H711        H  0.22618526  0.58132877  0.16489190     0.07800
Br712      Br  0.21392080  0.59388844  0.09155001    -0.02900
C713        C  0.22190472  0.36422268  0.98969957    -0.09500
C714        C  0.23232531  0.34879550  0.02053688     0.06700
C715        C  0.24702249  0.36929904  0.04645880    -0.03300
C716        C  0.25258178  0.40410409  0.04070550    -0.07700
C717        C  0.24334277  0.41918028  0.00943798     0.05800
C718        C  0.22705398  0.39923615  0.98412438    -0.02700
Br719      Br  0.21424957  0.41813030  0.94042984    -0.02400
H720        H  0.21192046  0.34861568  0.96907984     0.09700
H721        H  0.26432301  0.41941143  0.06064190     0.07800
Br722      Br  0.26260680  0.35006387  0.08913517    -0.02900
C723        C  0.27577483  0.67840462  0.01032126    -0.09500
C724        C  0.25641332  0.69442535  0.98422591     0.06700
C725        C  0.23629261  0.67400304  0.96225204    -0.03300
C726        C  0.23710099  0.63848377  0.96578883    -0.07700
C727        C  0.25818016  0.62258818  0.99038787     0.05800
C728        C  0.27700582  0.64285516  0.01336817    -0.02700
Br729      Br  0.30371823  0.62344753  0.05002924    -0.02400
H730        H  0.29101157  0.69368348  0.02775429     0.09700
H731        H  0.22193223  0.62305811  0.94842143     0.07800
Br732      Br  0.20960421  0.69230896  0.92496906    -0.02900
C733        C  0.39750280  0.31256529  0.64509409    -0.09500
C734        C  0.41638465  0.34295723  0.64244677     0.06700
C735        C  0.44563063  0.34695071  0.66357459    -0.03300
C736        C  0.45494716  0.32106980  0.68673297    -0.07700
C737        C  0.43544603  0.29121273  0.68996789     0.05800
C738        C  0.40641785  0.28710503  0.66881814    -0.02700
Br739      Br  0.37587130  0.24916215  0.67372735    -0.02400
H740        H  0.37477526  0.30911320  0.62950558     0.09700
H741        H  0.47705909  0.32473995  0.70315922     0.07800
Br742      Br  0.47161974  0.38845855  0.66563251    -0.02900
C743        C  0.44051103  0.23623532  0.83469541    -0.09500
C744        C  0.45811168  0.25922882  0.81350329     0.06700
C745        C  0.47924702  0.28405221  0.82864377    -0.03300
C746        C  0.48420320  0.28388868  0.86419442    -0.07700
C747        C  0.46872383  0.25900614  0.88503041     0.05800
C748        C  0.44584041  0.23566929  0.87001530    -0.02700
Br749      Br  0.42066421  0.20273274  0.89606908    -0.02400
H750        H  0.42364360  0.21738189  0.82339231     0.09700
H751        H  0.50139492  0.30246166  0.87543678     0.07800
Br752      Br  0.50403945  0.31676419  0.80205344    -0.02900
C753        C  0.49264285  0.12047303  0.70685735    -0.09500
C754        C  0.47693349  0.09984255  0.73170264     0.06700
C755        C  0.45200770  0.11426409  0.75279222    -0.03300
C756        C  0.44481077  0.14901591  0.75017703    -0.07700
C757        C  0.46270985  0.17030849  0.72753291     0.05800
C758        C  0.48601870  0.15557574  0.70486396    -0.02700
Br759      Br  0.51156781  0.18234270  0.67295889    -0.02400
H760        H  0.51128278  0.10952886  0.68987694     0.09700
H761        H  0.42629350  0.15995004  0.76733825     0.07800
Br762      Br  0.42659132  0.08808595  0.78537473    -0.02900
C763        C  0.62010358  0.00081086  0.76860310    -0.09500
C764        C  0.59991641  0.02314834  0.74887403     0.06700
C765        C  0.61410512  0.05370329  0.73652010    -0.03300
C766        C  0.64853192  0.06076696  0.74284237    -0.07700
C767        C  0.66926906  0.03744891  0.76095280     0.05800
C768        C  0.65468692  0.00739093  0.77411305    -0.02700
Br769      Br  0.68185233  0.97250141  0.79568709    -0.02400
H770        H  0.60924985  0.97733841  0.77842190     0.09700
H771        H  0.65974920  0.08342466  0.73163354     0.07800
Br772      Br  0.58761573  0.08627719  0.71082576    -0.02900
C773        C  0.38056805  0.99969583  0.75327705    -0.09500
C774        C  0.40121547  0.97992202  0.73193413     0.06700
C775        C  0.38656132  0.95314047  0.71301143    -0.03300
C776        C  0.35161582  0.94680224  0.71555695    -0.07700
C777        C  0.33084489  0.96713768  0.73639335     0.05800
C778        C  0.34560868  0.99394387  0.75518777    -0.02700
Br779      Br  0.31893683  0.02555793  0.78105767    -0.02400
H780        H  0.39161393  0.02038172  0.76795992     0.09700
H781        H  0.34033383  0.92653181  0.70042466     0.07800
Br782      Br  0.41311038  0.92400068  0.68434369    -0.02900
C783        C  0.77059523  0.93705219  0.39709203    -0.09500
C784        C  0.75386288  0.96613623  0.40958060     0.06700
C785        C  0.74243256  0.99128558  0.38653474    -0.03300
C786        C  0.74747118  0.98707562  0.35161393    -0.07700
C787        C  0.76236091  0.95717073  0.33863219     0.05800
C788        C  0.77426243  0.93205108  0.36175583    -0.02700
Br789      Br  0.79330579  0.88978808  0.34639155    -0.02400
H790        H  0.78011630  0.91787455  0.41484390     0.09700
H791        H  0.73802540  0.00659426  0.33418016     0.07800
Br792      Br  0.71997555  0.03202057  0.40143489    -0.02900
C793        C  0.74230002  0.98369878  0.63146928    -0.09500
C794        C  0.75802278  0.00739803  0.60995351     0.06700
C795        C  0.77752363  0.03411482  0.62444565    -0.03300
C796        C  0.77819474  0.03852111  0.66001772    -0.07700
C797        C  0.76043681  0.01602207  0.68135134     0.05800
C798        C  0.74403886  0.98733772  0.66687739    -0.02700
Br799      Br  0.72232655  0.95311565  0.69447948    -0.02400
H800        H  0.72868521  0.96214090  0.62067154     0.09700
H801        H  0.79072221  0.06071837  0.67080580     0.07800
Br802      Br  0.80111538  0.06696539  0.59686921    -0.02900
C803        C  0.66639308  0.33504681  0.45319258    -0.09500
C804        C  0.64406740  0.32869812  0.42556890     0.06700
C805        C  0.64495330  0.29611917  0.41018224    -0.03300
C806        C  0.66909349  0.27180190  0.42091371    -0.07700
C807        C  0.69231083  0.27847966  0.44773764     0.05800
C808        C  0.68991102  0.31033683  0.46464698    -0.02700
Br809      Br  0.71619904  0.32121619  0.50491074    -0.02400
H810        H  0.66584959  0.35961340  0.46580773     0.09700
H811        H  0.66982417  0.24748101  0.40785872     0.07800
Br812      Br  0.61248441  0.28195886  0.37607651    -0.02900
C813        C  0.71517195  0.14183172  0.49627334    -0.09500
C814        C  0.72940868  0.15507401  0.46631873     0.06700
C815        C  0.74761715  0.13301765  0.44464140    -0.03300
C816        C  0.75389795  0.09922757  0.45453839    -0.07700
C817        C  0.74109245  0.08647026  0.48531020     0.05800
C818        C  0.72060453  0.10771533  0.50572520    -0.02700
Br819      Br  0.70237224  0.09237548  0.54852849    -0.02400
H820        H  0.70202878  0.15867794  0.51364058     0.09700
H821        H  0.76875418  0.08287754  0.43813031     0.07800
Br822      Br  0.76624567  0.14887838  0.40225219    -0.02900
C823        C  0.82794089  0.23120646  0.50842935    -0.09500
C824        C  0.81399324  0.24465080  0.47788768     0.06700
C825        C  0.83592607  0.25844632  0.45317399    -0.03300
C826        C  0.87119069  0.25748298  0.45883171    -0.07700
C827        C  0.88499171  0.24208072  0.48842650     0.05800
C828        C  0.86307819  0.22958302  0.51371916    -0.02700
Br829      Br  0.87974882  0.21105059  0.55631359    -0.02400
H830        H  0.81131854  0.22048034  0.52764430     0.09700
H831        H  0.88797462  0.26798678  0.43965045     0.07800
Br832      Br  0.81933348  0.27625381  0.41031802    -0.02900
C833        C  0.31817918  0.42370655  0.72037999    -0.09500
C834        C  0.29115929  0.44585624  0.71206364     0.06700
C835        C  0.28991123  0.46086779  0.67919893    -0.03300
C836        C  0.31489998  0.45291730  0.65518470    -0.07700
C837        C  0.34105067  0.42958085  0.66302588     0.05800
C838        C  0.34286278  0.41537374  0.69620766    -0.02700
Br839      Br  0.37917281  0.38573797  0.71050956    -0.02400
H840        H  0.31991814  0.41260169  0.74578894     0.09700
H841        H  0.31311997  0.46396668  0.62975558     0.07800
Br842      Br  0.25517284  0.49295362  0.66600452    -0.02900
C843        C  0.28185389  0.47282223  0.85045122    -0.09500
C844        C  0.26307661  0.49306604  0.82748847     0.06700
C845        C  0.24656069  0.52268147  0.83938339    -0.03300
C846        C  0.24579505  0.52939619  0.87438781    -0.07700
C847        C  0.26229746  0.50754524  0.89763664     0.05800
C848        C  0.28173028  0.47991057  0.88539920    -0.02700
Br849      Br  0.30516022  0.44850636  0.91535871    -0.02400
H850        H  0.29425854  0.44982985  0.84158011     0.09700
H851        H  0.23180733  0.55133861  0.88352215     0.07800
Br852      Br  0.22308116  0.55349160  0.80884111    -0.02900
C853        C  0.11434728  0.45544430  0.78105882    -0.09500
C854        C  0.10145798  0.47794125  0.75601883     0.06700
C855        C  0.12235623  0.48627753  0.72774533    -0.03300
C856        C  0.15619795  0.47534511  0.72713486    -0.07700
C857        C  0.16978219  0.45537141  0.75365386     0.05800
C858        C  0.14792209  0.44353537  0.77960592    -0.02700
Br859      Br  0.16329764  0.41180326  0.81408326    -0.02400
H860        H  0.09826631  0.44699302  0.80178367     0.09700
H861        H  0.17265519  0.48460279  0.70704388     0.07800
Br862      Br  0.10793148  0.51422261  0.68978536    -0.02900
C863        C  0.94873580  0.35803147  0.78332503    -0.09500
C864        C  0.97078698  0.33555461  0.76674556     0.06700
C865        C  0.99992850  0.34863598  0.75037915    -0.03300
C866        C  0.00492704  0.38384476  0.74815661    -0.07700
C867        C  0.98185954  0.40638132  0.76307140     0.05800
C868        C  0.95431591  0.39330014  0.78194705    -0.02700
Br869      Br  0.92221196  0.42262710  0.80403571    -0.02400
H870        H  0.92610918  0.34830433  0.79562989     0.09700
H871        H  0.02703377  0.39365863  0.73498974     0.07800
Br872      Br  0.03318463  0.31928039  0.72999159    -0.02900
C873        C  0.05865289  0.65656216  0.75006202    -0.09500
C874        C  0.03649655  0.67786010  0.76825358     0.06700
C875        C  0.00911408  0.66297609  0.78585228    -0.03300
C876        C  0.00381601  0.62757818  0.78411655    -0.07700
C877        C  0.02457277  0.60679143  0.76374982     0.05800
C878        C  0.05250693  0.62156612  0.74711774    -0.02700
Br879      Br  0.08276998  0.59548693  0.71957776    -0.02400
H880        H  0.07942146  0.66773940  0.73581935     0.09700
H881        H  0.98234952  0.61647485  0.79732856     0.07800
Br882      Br  0.97621681  0.69023425  0.80921205    -0.02900
C883        C  0.99947973  0.78116529  0.38331097    -0.09500
C884        C  0.97970442  0.76065131  0.40487186     0.06700
C885        C  0.95252472  0.74173618  0.39096795    -0.03300
C886        C  0.94732698  0.74135275  0.35553376    -0.07700
C887        C  0.96911859  0.75942607  0.33358549     0.05800
C888        C  0.99466425  0.78038080  0.34783589    -0.02700
Br889      Br  0.02646096  0.80483648  0.32014103    -0.02400
H890        H  0.02019713  0.79618089  0.39394505     0.09700
H891        H  0.92756194  0.72513389  0.34486757     0.07800
Br892      Br  0.92208607  0.71608464  0.41927395    -0.02900
C893        C  0.99968797  0.74289067  0.62296651    -0.09500
C894        C  0.02608446  0.75764461  0.60431091     0.06700
C895        C  0.05165950  0.77627721  0.62157533    -0.03300
C896        C  0.05174834  0.77775996  0.65742340    -0.07700
C897        C  0.02594443  0.76175380  0.67625055     0.05800
C898        C  0.99897661  0.74542902  0.65848281    -0.02700
Br899      Br  0.96013527  0.72650441  0.68130411    -0.02400
H900        H  0.97892355  0.73012093  0.60971288     0.09700
H901        H  0.07274185  0.79014869  0.67062548     0.07800
Br902      Br  0.08782089  0.79835503  0.59741302    -0.02900
C903        C  0.32999987  0.66845578  0.44266697    -0.09500
C904        C  0.34732142  0.67259722  0.41132564     0.06700
C905        C  0.33677727  0.70077925  0.39014990    -0.03300
C906        C  0.31215822  0.72383737  0.40145932    -0.07700
C907        C  0.29549179  0.71943607  0.43244281     0.05800
C908        C  0.30408778  0.69095959  0.45288480    -0.02700
Br909      Br  0.28136206  0.68170617  0.49509011    -0.02400
H910        H  0.33544538  0.64670923  0.45897754     0.09700
H911        H  0.30500758  0.74524129  0.38519202     0.07800
Br912      Br  0.35113179  0.71138662  0.34463242    -0.02900
C913        C  0.16329857  0.73684375  0.48644158    -0.09500
C914        C  0.17373423  0.75389641  0.45680535     0.06700
C915        C  0.14919072  0.77105421  0.43628933    -0.03300
C916        C  0.11528350  0.77262504  0.44667883    -0.07700
C917        C  0.10520415  0.75679729  0.47708306     0.05800
C918        C  0.12928609  0.73809123  0.49662885    -0.02700
Br919      Br  0.11763170  0.71648064  0.53910321    -0.02400
H920        H  0.18201183  0.72439368  0.50283764     0.09700
H921        H  0.09673299  0.78613135  0.43094563     0.07800
Br922      Br  0.16109094  0.79364908  0.39436849    -0.02900
C923        C  0.23951933  0.86417214  0.43384810    -0.09500
C924        C  0.26113375  0.84224942  0.45268897     0.06700
C925        C  0.28346686  0.85641670  0.47725487    -0.03300
C926        C  0.28175061  0.89143026  0.48446929    -0.07700
C927        C  0.25769239  0.91263903  0.46788393     0.05800
C928        C  0.23738795  0.89889082  0.44135980    -0.02700
Br929      Br  0.20650566  0.92599152  0.41407714    -0.02400
H930        H  0.22265487  0.85374517  0.41438243     0.09700
H931        H  0.29826900  0.90181212  0.50423088     0.07800
Br932      Br  0.31453323  0.82890399  0.50373596    -0.02900
C933        C  0.71126076  0.52946205  0.68521597    -0.09500
C934        C  0.70657003  0.53985746  0.71943430     0.06700
C935        C  0.67678290  0.55877047  0.72692193    -0.03300
C936        C  0.65335368  0.56699923  0.70078761    -0.07700
C937        C  0.65958501  0.55907992  0.66654377     0.05800
C938        C  0.68840110  0.53924251  0.65891229    -0.02700
Br939      Br  0.69870197  0.52675803  0.61278420    -0.02400
H940        H  0.73343796  0.51453454  0.67862248     0.09700
H941        H  0.63068075  0.58128974  0.70703024     0.07800
Br942      Br  0.66822454  0.57849253  0.77096210    -0.02900
C943        C  0.84599479  0.50899164  0.73625172    -0.09500
C944        C  0.83118353  0.53539799  0.75501789     0.06700
C945        C  0.85247781  0.55803830  0.77339701    -0.03300
C946        C  0.88771302  0.55259180  0.77480769    -0.07700
C947        C  0.90234131  0.52520009  0.75737039     0.05800
C948        C  0.88127824  0.50386487  0.73710530    -0.02700
Br949      Br  0.89886780  0.46531220  0.71269685    -0.02400
H950        H  0.82989752  0.49095460  0.72270485     0.09700
H951        H  0.90370817  0.56975828  0.78955726     0.07800
Br952      Br  0.83420399  0.59624361  0.79765906    -0.02900
C953        C  0.76552582  0.48062317  0.89260032    -0.09500
C954        C  0.74913153  0.50459964  0.91316512     0.06700
C955        C  0.72899254  0.53023510  0.89732766    -0.03300
C956        C  0.72755387  0.53280419  0.86146917    -0.07700
C957        C  0.74534298  0.50965562  0.84096836     0.05800
C958        C  0.76324205  0.48253993  0.85693450    -0.02700
Br959      Br  0.78564565  0.44776661  0.83097422    -0.02400
H960        H  0.78015894  0.46020251  0.90432980     0.09700
H961        H  0.71414819  0.55406396  0.84965234     0.07800
Br962      Br  0.70549379  0.56416043  0.92333490    -0.02900
C963        C  0.76035421  0.61370655  0.99854682    -0.09500
C964        C  0.76839210  0.59315314  0.02684332     0.06700
C965        C  0.78069479  0.60826765  0.05717613    -0.03300
C966        C  0.78193523  0.64392008  0.05977138    -0.07700
C967        C  0.77150067  0.66458431  0.03217006     0.05800
C968        C  0.76211413  0.64918267  0.00088327    -0.02700
Br969      Br  0.74915514  0.67572655  0.96138343    -0.02400
H970        H  0.75199261  0.60213590  0.97477940     0.09700
H971        H  0.78869297  0.65546008  0.08406368     0.07800
Br972      Br  0.79332216  0.58129704  0.09638767    -0.02900
C973        C  0.72952551  0.37196630  0.02504854    -0.09500
C974        C  0.74968319  0.39118795  0.00274033     0.06700
C975        C  0.76947053  0.37430128  0.97810341    -0.03300
C976        C  0.76754417  0.33893770  0.97504798    -0.07700
C977        C  0.74632122  0.31976063  0.99630667     0.05800
C978        C  0.72803575  0.33641580  0.02230377    -0.02700
Br979      Br  0.70100814  0.31177451  0.05479198    -0.02400
H980        H  0.71521835  0.38459735  0.04488214     0.09700
H981        H  0.78113867  0.32661062  0.95454361     0.07800
Br982      Br  0.79736811  0.39814173  0.94581911    -0.02900
C983        C  0.65470318  0.72486956  0.05815020    -0.09500
C984        C  0.67730298  0.74548119  0.03947586     0.06700
C985        C  0.66445517  0.76686958  0.01338159    -0.03300
C986        C  0.62962877  0.76721693  0.00629169    -0.07700
C987        C  0.60713670  0.74600024  0.02426000     0.05800
C988        C  0.61979863  0.72485396  0.05064702    -0.02700
Br989      Br  0.59067782  0.69651833  0.07779983    -0.02400
H990        H  0.66445337  0.70805882  0.07807238     0.09700
H991        H  0.62010844  0.78364154  0.98593639     0.07800
Br992      Br  0.69335459  0.79370953  0.98446630    -0.02900
C993        C  0.39218117  0.79456087  0.99736737    -0.09500
C994        C  0.41124269  0.77501654  0.97448514     0.06700
C995        C  0.39571922  0.76251777  0.94451043    -0.03300
C996        C  0.36073302  0.76697634  0.93940635    -0.07700
C997        C  0.34097494  0.78359296  0.96403471     0.05800
C998        C  0.35712545  0.79863711  0.99251960    -0.02700
Br999      Br  0.33180152  0.82096964  0.02764350    -0.01600
H1000       H  0.40421784  0.80486571  0.02018557     0.09700
H1001       H  0.34843762  0.75509843  0.91753067     0.07800
Br1002     Br  0.42110057  0.73882596  0.91034748    -0.02900
C1003       C  0.69026550  0.39312787  0.35134000    -0.09500
C1004       C  0.66072983  0.41334696  0.34991777     0.06700
C1005       C  0.65816106  0.43904744  0.32460517    -0.03300
C1006       C  0.68523714  0.44478647  0.30223168    -0.07700
C1007       C  0.71486183  0.42468848  0.30382427     0.05800
C1008       C  0.71691138  0.39818060  0.32840613    -0.02700
Br1009     Br  0.75382288  0.36595078  0.32996822    -0.02400
H1010       H  0.69226029  0.37254892  0.36989497     0.09700
H1011       H  0.68296607  0.46487255  0.28318720     0.07800
Br1012     Br  0.61732903  0.46481623  0.31692548    -0.02900
C1013       C  0.77881804  0.44319291  0.12663630    -0.09500
C1014       C  0.76022645  0.47211436  0.11633420     0.06700
C1015       C  0.74017693  0.48930089  0.14061123    -0.03300
C1016       C  0.73983017  0.47799416  0.17466755    -0.07700
C1017       C  0.75903808  0.44953067  0.18508488     0.05800
C1018       C  0.77814779  0.43168525  0.16054781    -0.02700
Br1019     Br  0.80343223  0.39115377  0.17204069    -0.02400
H1020       H  0.79345287  0.42908893  0.10807566     0.09700
H1021       H  0.72575138  0.49241562  0.19341352     0.07800
Br1022     Br  0.71483710  0.52982287  0.12936155    -0.02900
C1023       C  0.84725927  0.48256399  0.29295503    -0.09500
C1024       C  0.83821056  0.44956408  0.28249841     0.06700
C1025       C  0.86378200  0.42586366  0.27444437    -0.03300
C1026       C  0.89769160  0.43633691  0.27365047    -0.07700
C1027       C  0.90644674  0.47006068  0.28156522     0.05800
C1028       C  0.88134242  0.49283419  0.29293199    -0.02700
Br1029     Br  0.89204685  0.53885677  0.30565870    -0.02400
H1030       H  0.82762431  0.50103795  0.29874898     0.09700
H1031       H  0.91718145  0.41837401  0.26606234     0.07800
Br1032     Br  0.85305669  0.37968885  0.26216420    -0.02900
C1033       C  0.46616604  0.67925167  0.28765470    -0.09500
C1034       C  0.45847649  0.71395778  0.29415599     0.06700
C1035       C  0.44072720  0.72134986  0.32476232    -0.03300
C1036       C  0.43093753  0.69480734  0.34681794    -0.07700
C1037       C  0.43537539  0.66045577  0.33822974     0.05800
C1038       C  0.45443621  0.65274909  0.30902751    -0.02700
Br1039     Br  0.46407342  0.60641630  0.29685530    -0.02400
H1040       H  0.48076078  0.67242233  0.26538679     0.09700
H1041       H  0.41789436  0.70104435  0.37023807     0.07800
Br1042     Br  0.42442975  0.76605659  0.33675228    -0.02900
C1043       C  0.50936531  0.76422775  0.15771965    -0.09500
C1044       C  0.47823350  0.75290400  0.17116898     0.06700
C1045       C  0.45237238  0.74203795  0.14845565    -0.03300
C1046       C  0.45770985  0.74375474  0.11296896    -0.07700
C1047       C  0.48809533  0.75735957  0.09984409     0.05800
C1048       C  0.51421547  0.76711514  0.12259438    -0.02700
Br1049     Br  0.55732277  0.78402734  0.10715593    -0.02400
H1050       H  0.52961786  0.77243261  0.17483942     0.09700
H1051       H  0.43773331  0.73542895  0.09556520     0.07800
Br1052     Br  0.40890111  0.72703209  0.16448876    -0.02900
C1053       C  0.52380240  0.88567596  0.24190181    -0.09500
C1054       C  0.49843117  0.90743565  0.25403695     0.06700
C1055       C  0.47100743  0.89345436  0.27246703    -0.03300
C1056       C  0.46767898  0.85786663  0.27554849    -0.07700
C1057       C  0.49201708  0.83599057  0.26137958     0.05800
C1058       C  0.52115469  0.85034207  0.24606638    -0.02700
Br1059     Br  0.55728289  0.82241109  0.22890198    -0.02400
H1060       H  0.54582931  0.89622217  0.22916937     0.09700
H1061       H  0.44498988  0.84728135  0.28700637     0.07800
Br1062     Br  0.43610037  0.92180885  0.29128619    -0.02900
C1063       C  0.59198257  0.69105844  0.71426980    -0.09500
C1064       C  0.56029849  0.70586667  0.70771579     0.06700
C1065       C  0.54153386  0.69459687  0.67902881    -0.03300
C1066       C  0.55467451  0.66879924  0.65787935    -0.07700
C1067       C  0.58658021  0.65289186  0.66452977     0.05800
C1068       C  0.60536081  0.66527771  0.69372300    -0.02700
Br1069     Br  0.64895480  0.65065719  0.71104396    -0.02400
H1070       H  0.60677295  0.69993849  0.73609153     0.09700
H1071       H  0.53952034  0.66167825  0.63581255     0.07800
Br1072     Br  0.49707715  0.71232113  0.66848281    -0.02900
C1073       C  0.49635080  0.84262610  0.75003630    -0.09500
C1074       C  0.52509432  0.82769806  0.73498157     0.06700
C1075       C  0.54900385  0.84900896  0.71876596    -0.03300
C1076       C  0.54460242  0.88455387  0.71934787    -0.07700
C1077       C  0.51731300  0.89929528  0.73695387     0.05800
C1078       C  0.49263709  0.87798757  0.75169101    -0.02700
Br1079     Br  0.45329327  0.89573016  0.77435025    -0.02400
H1080       H  0.47773016  0.82660074  0.76259066     0.09700
H1081       H  0.56334037  0.90080329  0.70728623     0.07800
Br1082     Br  0.58964281  0.83136332  0.69856087    -0.02900
C1083       C  0.56297218  0.76799407  0.84886998    -0.09500
C1084       C  0.54249935  0.74631119  0.82866146     0.06700
C1085       C  0.51825713  0.72545330  0.84473121    -0.03300
C1086       C  0.51376621  0.72775772  0.88008319    -0.07700
C1087       C  0.53247367  0.75125364  0.89991076     0.05800
C1088       C  0.55808658  0.77072350  0.88416395    -0.02700
Br1089     Br  0.58748093  0.80083423  0.90945900    -0.02400
H1090       H  0.58180206  0.78412604  0.83678381     0.09700
H1091       H  0.49433223  0.71218094  0.89188938     0.07800
Br1092     Br  0.48806987  0.69625323  0.81932485    -0.02900
C1093       C  0.69396287  0.69529000  0.55655577    -0.09500
C1094       C  0.72309877  0.69647468  0.57780654     0.06700
C1095       C  0.72675768  0.67167365  0.60385574    -0.03300
C1096       C  0.70208853  0.64620656  0.60768440    -0.07700
C1097       C  0.67208305  0.64583264  0.58758314     0.05800
C1098       C  0.66832451  0.67085127  0.56152967    -0.02700
Br1099     Br  0.62780617  0.67575725  0.53394944    -0.02400
H1100       H  0.69060602  0.71422782  0.53649659     0.09700
H1101       H  0.70594940  0.62727931  0.62763786     0.07800
Br1102     Br  0.76245913  0.67353306  0.63782183    -0.02900
C1103       C  0.86624780  0.76138565  0.57598449    -0.09500
C1104       C  0.84393641  0.73878119  0.55889724     0.06700
C1105       C  0.85630149  0.71951391  0.53138432    -0.03300
C1106       C  0.88948151  0.72490966  0.52005199    -0.07700
C1107       C  0.91052620  0.74985414  0.53510273     0.05800
C1108       C  0.89900921  0.76756511  0.56394358    -0.02700
Br1109     Br  0.92672838  0.80018874  0.58799325    -0.02400
H1110       H  0.85713729  0.77627881  0.59733168     0.09700
H1111       H  0.89852532  0.71030149  0.49850095     0.07800
Br1112     Br  0.82841067  0.68801096  0.50613367    -0.02900
C1113       C  0.76747399  0.84507342  0.57900737    -0.09500
C1114       C  0.75162935  0.82069186  0.55782834     0.06700
C1115       C  0.73671700  0.83117789  0.52662909    -0.03300
C1116       C  0.73889253  0.86536041  0.51657938    -0.07700
C1117       C  0.75674828  0.88913833  0.53669872     0.05800
C1118       C  0.77046912  0.87902993  0.56850726    -0.02700
Br1119     Br  0.79331862  0.91049595  0.59846000    -0.02400
H1120       H  0.77966039  0.83707446  0.60275055     0.09700
H1121       H  0.72751297  0.87324858  0.49240832     0.07800
Br1122     Br  0.71645593  0.79929298  0.49529980    -0.02900
C1123       C  0.05302163  0.83566117  0.84869428    -0.09500
C1124       C  0.07959360  0.85739455  0.83840706     0.06700
C1125       C  0.09285043  0.85306954  0.80519202    -0.03300
C1126       C  0.08140615  0.82632894  0.78434995    -0.07700
C1127       C  0.05582494  0.80377065  0.79504750     0.05800
C1128       C  0.04090373  0.80935222  0.82730756    -0.02700
Br1129     Br  0.00252317  0.78338469  0.84255833    -0.02400
H1130       H  0.04195411  0.83877459  0.87374627     0.09700
H1131       H  0.09264852  0.82320864  0.75936653     0.07800
Br1132     Br  0.12447692  0.88418731  0.78498187    -0.02900
C1133       C  0.18740206  0.86710444  0.94825192    -0.09500
C1134       C  0.16410722  0.85530042  0.92335015     0.06700
C1135       C  0.16638219  0.82106985  0.91256926    -0.03300
C1136       C  0.19240115  0.80003486  0.92535714    -0.07700
C1137       C  0.21626609  0.81203283  0.94951004     0.05800
C1138       C  0.21311580  0.84580667  0.96153120    -0.02700
Br1139     Br  0.24182104  0.86360287  0.99732998    -0.02400
H1140       H  0.18579365  0.89317123  0.95725913     0.09700
H1141       H  0.19408274  0.77403951  0.91617064     0.07800
Br1142     Br  0.13350279  0.80053072  0.88243111    -0.02900
C1143       C  0.19694088  0.91542279  0.83498563    -0.09500
C1144       C  0.16725919  0.93499125  0.83903905     0.06700
C1145       C  0.16097394  0.96209851  0.81572121    -0.03300
C1146       C  0.18418096  0.96909822  0.78957504    -0.07700
C1147       C  0.21331883  0.94883912  0.78490347     0.05800
C1148       C  0.21932798  0.92146354  0.80794914    -0.02700
Br1149     Br  0.25511196  0.88866128  0.80178879    -0.02400
H1150       H  0.20210530  0.89419659  0.85214086     0.09700
H1151       H  0.17882689  0.99001252  0.77209191     0.07800
Br1152     Br  0.11930427  0.98775073  0.81489809    -0.02900
C1153       C  0.05497034  0.92846661  0.95673662    -0.09500
C1154       C  0.07377241  0.94746862  0.93273729     0.06700
C1155       C  0.06944905  0.98357213  0.93379778    -0.03300
C1156       C  0.04771186  0.99846550  0.95797539    -0.07700
C1157       C  0.02697692  0.97941701  0.98066561     0.05800
C1158       C  0.03355696  0.94336463  0.98116737    -0.02700
Br1159     Br  0.02088484  0.91109930  0.01610332    -0.02400
H1160       H  0.05793811  0.90095506  0.95730031     0.09700
H1161       H  0.04530455  0.02603441  0.95773337     0.07800
Br1162     Br  0.08584817  0.01595824  0.90090002    -0.02900
C1163       C  0.78971596  0.80793746  0.09046402    -0.09500
C1164       C  0.79628754  0.78805102  0.06149349     0.06700
C1165       C  0.82480585  0.79617641  0.04140868    -0.03300
C1166       C  0.84764563  0.82158737  0.05223233    -0.07700
C1167       C  0.84201827  0.84035180  0.08232683     0.05800
C1168       C  0.81168301  0.83427011  0.10050113    -0.02700
Br1169     Br  0.79681321  0.86251952  0.13736415    -0.02400
H1170       H  0.76717220  0.80302670  0.10543441     0.09700
H1171       H  0.87022279  0.82624098  0.03726481     0.07800
Br1172     Br  0.83244859  0.77516725  0.99786952    -0.02900
C1173       C  0.83578297  0.94378053  0.16411231    -0.09500
C1174       C  0.85753772  0.91599084  0.17085138     0.06700
C1175       C  0.85535870  0.89960663  0.20309209    -0.03300
C1176       C  0.83006581  0.90911469  0.22626998    -0.07700
C1177       C  0.80699962  0.93561507  0.21870981     0.05800
C1178       C  0.81113917  0.95396729  0.18772688    -0.02700
Br1179     Br  0.78546497  0.99439852  0.17679295    -0.02400
H1180       H  0.83735919  0.95725572  0.13991961     0.09700
H1181       H  0.82815744  0.89529402  0.25024727     0.07800
Br1182     Br  0.88724623  0.86555418  0.21827086    -0.02900
C1183       C  0.93092234  0.77370324  0.18365886    -0.09500
C1184       C  0.95691207  0.78307035  0.20668953     0.06700
C1185       C  0.97307633  0.81497366  0.20206643    -0.03300
C1186       C  0.96184904  0.83741080  0.17617171    -0.07700
C1187       C  0.93442400  0.82887940  0.15444588     0.05800
C1188       C  0.91968456  0.79607127  0.15779273    -0.02700
Br1189     Br  0.88495670  0.77939742  0.12735900    -0.02400
H1190       H  0.91862813  0.74908067  0.18633241     0.09700
H1191       H  0.97369685  0.86229211  0.17398034     0.07800
Br1192     Br  0.01106007  0.82908608  0.22978637    -0.02900
C1193       C  0.93326873  0.93242467  0.03398127    -0.09500
C1194       C  0.93870052  0.92953688  0.06964417     0.06700
C1195       C  0.96559712  0.94964506  0.08348784    -0.03300
C1196       C  0.98515618  0.97146074  0.06248206    -0.07700
C1197       C  0.97917406  0.97506281  0.02669999     0.05800
C1198       C  0.95275947  0.95391675  0.01292345    -0.02700
Br1199     Br  0.94280338  0.94943934  0.96500847    -0.02400
H1200       H  0.91422892  0.91738355  0.02108521     0.09700
H1201       H  0.00587578  0.98500818  0.07473170     0.07800
Br1202     Br  0.97782500  0.94839557  0.13124564    -0.02900
C1203       C  0.81800319  0.05256045  0.85780584    -0.09500
C1204       C  0.84078577  0.07868003  0.84858014     0.06700
C1205       C  0.83923298  0.09150497  0.81469419    -0.03300
C1206       C  0.81461030  0.07947727  0.79167559    -0.07700
C1207       C  0.79131859  0.05413482  0.80103868     0.05800
C1208       C  0.79353117  0.04016301  0.83438679    -0.02700
Br1209     Br  0.76515369  0.00300862  0.84866217    -0.02400
H1210       H  0.81896072  0.04200610  0.88347060     0.09700
H1211       H  0.81365064  0.09010791  0.76602622     0.07800
Br1212     Br  0.87118393  0.12350238  0.79650767    -0.02900
C1213       C  0.84032528  0.19534672  0.92778613    -0.09500
C1214       C  0.83581526  0.16016735  0.93185810     0.06700
C1215       C  0.80503701  0.14794942  0.94529282    -0.03300
C1216       C  0.77974769  0.17100958  0.95523998    -0.07700
C1217       C  0.78385930  0.20644680  0.95057000     0.05800
C1218       C  0.81436129  0.21837053  0.93555914    -0.02700
Br1219     Br  0.82103281  0.26484805  0.92102281    -0.02400
H1220       H  0.86410005  0.20507072  0.91793665     0.09700
H1221       H  0.75657903  0.16108238  0.96631458     0.07800
Br1222     Br  0.79580352  0.09997988  0.94876783    -0.02900
C1223       C  0.95464608  0.18716796  0.80562443    -0.09500
C1224       C  0.93490709  0.21700310  0.80265137     0.06700
C1225       C  0.90707628  0.22122758  0.82449459    -0.03300
C1226       C  0.89954228  0.19613386  0.84872920    -0.07700
C1227       C  0.91912590  0.16619987  0.85231080     0.05800
C1228       C  0.94704062  0.16181716  0.83004247    -0.02700
Br1229     Br  0.97304308  0.12036037  0.82848250    -0.02400
H1230       H  0.97568148  0.18325442  0.78833212     0.09700
H1231       H  0.87712295  0.19981788  0.86406682     0.07800
Br1232     Br  0.87676733  0.25955578  0.82033181    -0.02900
C1233       C  0.95925353  0.05547018  0.92786544    -0.09500
C1234       C  0.93078474  0.07027104  0.94337246     0.06700
C1235       C  0.92144956  0.05573190  0.97530846    -0.03300
C1236       C  0.94398290  0.03369204  0.99309187    -0.07700
C1237       C  0.97536604  0.02222445  0.97976748     0.05800
C1238       C  0.97819928  0.02903514  0.94355555    -0.02700
Br1239     Br  0.98989132  0.99583209  0.90907763    -0.02400
H1240       H  0.96357681  0.06081194  0.90103204     0.09700
H1241       H  0.93459351  0.02245335  0.01629811     0.07800
Br1242     Br  0.87665169  0.05882052  0.99441098    -0.02900
C1243       C  0.17104270  0.23244007  0.06191708    -0.09500
C1244       C  0.19902678  0.22402224  0.04129047     0.06700
C1245       C  0.20182060  0.18939338  0.03060461    -0.03300
C1246       C  0.17982057  0.16423827  0.04377955    -0.07700
C1247       C  0.15321888  0.17281303  0.06577965     0.05800
C1248       C  0.14773156  0.20761829  0.07281129    -0.02700
Br1249     Br  0.10665645  0.22327997  0.09346603    -0.02400
H1250       H  0.16693048  0.25853350  0.06981291     0.09700
H1251       H  0.18336868  0.13779799  0.03658435     0.07800
Br1252     Br  0.23243840  0.17466293  0.99561586    -0.02900
C1253       C  0.17524642  0.10877835  0.18022883    -0.09500
C1254       C  0.16886688  0.08902248  0.15079369     0.06700
C1255       C  0.19028110  0.06040078  0.14521957    -0.03300
C1256       C  0.21650806  0.05222269  0.16879094    -0.07700
C1257       C  0.22268569  0.07226567  0.19791015     0.05800
C1258       C  0.20208502  0.10125208  0.20295827    -0.02700
Br1259     Br  0.21124145  0.13349881  0.23862112    -0.02400
H1260       H  0.15948141  0.13070796  0.18570954     0.09700
H1261       H  0.23237312  0.03010072  0.16423119     0.07800
Br1262     Br  0.18732678  0.03249564  0.10520541    -0.02900
C1263       C  0.04823610  0.17633775  0.21230501    -0.09500
C1264       C  0.06701986  0.20579223  0.22020223     0.06700
C1265       C  0.09636025  0.21280275  0.20095951    -0.03300
C1266       C  0.10488488  0.19205396  0.17318790    -0.07700
C1267       C  0.08517313  0.16339086  0.16373650     0.05800
C1268       C  0.05736179  0.15479889  0.18521703    -0.02700
Br1269     Br  0.03302856  0.11225552  0.18304455    -0.02400
H1270       H  0.02644202  0.16969387  0.22772709     0.09700
H1271       H  0.12739787  0.19883022  0.15916002     0.07800
Br1272     Br  0.12747776  0.24877356  0.21298529    -0.02900
C1273       C  0.05977080  0.02473413  0.02790809    -0.09500
C1274       C  0.02336795  0.02596350  0.02778073     0.06700
C1275       C  0.01004274  0.05061787  0.05140201    -0.03300
C1276       C  0.03158563  0.07360701  0.06939294    -0.07700
C1277       C  0.06739472  0.07376224  0.06645978     0.05800
C1278       C  0.08091117  0.04877994  0.04443571    -0.02700
Br1279     Br  0.12865114  0.04561695  0.03472547    -0.02400
H1280       H  0.07332277  0.00448791  0.01545880     0.09700
H1281       H  0.01926595  0.09110616  0.08635041     0.07800
Br1282     Br  0.96415339  0.05269416  0.06764127    -0.02900
loop_ 
_geom_bond_atom_site_label_1 
_geom_bond_atom_site_label_2 
_geom_bond_distance 
_geom_bond_site_symmetry_2 
_ccdc_geom_bond_type 
C1            C2   1.558       .  S
C1            C7   1.555       .  S
C1            C5   1.545       .  S
C1         C1277   1.573       .  S
C2            H9   1.075       .  S
C2            C3   1.374       .  D
C3            C4   1.544       .  S
C3         C1267   1.518       .  S
C4            C8   1.541       .  S
C4            C6   1.542       .  S
C4           H10   1.106       .  S
C5           H11   1.086       .  S
C5            C6   1.368       .  D
C6         C1247   1.499       .  S
C7           H12   1.084       .  S
C7            C8   1.375       .  D
C8         C1254   1.511       .  S
C13          C14   1.557       .  S
C13          C19   1.547       .  S
C13          C17   1.544       .  S
C13        C1234   1.556       .  S
C14          H21   1.085       .  S
C14          C15   1.376       .  D
C15          C16   1.541       .  S
C15        C1227   1.504       .  S
C16          C20   1.534       .  S
C16          C18   1.533       .  S
C16          H22   1.110       .  S
C17          H23   1.082       .  S
C17          C18   1.364       .  D
C18        C1214   1.480       .  S
C19          H24   1.086       .  S
C19          C20   1.369       .  D
C20        C1204   1.496       .  S
C25          C26   1.547       .  S
C25          C31   1.557       .  S
C25          C29   1.550       .  S
C25        C1194   1.568       .  S
C26          H33   1.086       .  S
C26          C27   1.372       .  D
C27          C28   1.540       .  S
C27        C1174   1.499       .  S
C28          C32   1.536       .  S
C28          C30   1.536       .  S
C28          H34   1.107       .  S
C29          H35   1.086       .  S
C29          C30   1.373       .  D
C30        C1187   1.497       .  S
C31          H36   1.080       .  S
C31          C32   1.368       .  D
C32        C1167   1.498       .  S
C37          C38   1.552       .  S
C37          C43   1.553       .  S
C37          C41   1.544       .  S
C37        C1154   1.564       .  S
C38          H45   1.086       .  S
C38          C39   1.372       .  D
C39          C40   1.536       .  S
C39        C1124   1.502       .  S
C40          C44   1.537       .  S
C40          C42   1.540       .  S
C40          H46   1.109       .  S
C41          H47   1.086       .  S
C41          C42   1.366       .  D
C42        C1134   1.490       .  S
C43          H48   1.072       .  S
C43          C44   1.370       .  D
C44        C1144   1.498       .  S
C49        C1157   1.596   1_544  S
C49        C1197   1.588   1_445  S
C49        C1237   1.617   1_454  S
C49        C1274   1.626       .  S
C50          C51   1.416       .  A
C50          C55   1.414       .  A
C50        C1094   1.491       .  S
C51          C52   1.407       .  A
C51          H56   1.082       .  S
C52          C53   1.389       .  A
C52        C1104   1.479       .  S
C53          C54   1.386       .  A
C53          H57   1.086       .  S
C54          C55   1.402       .  A
C54        C1114   1.469       .  S
C55          H58   1.083       .  S
C59          C60   1.414       .  A
C59          C64   1.415       .  A
C59        C1064   1.494       .  S
C60          C61   1.410       .  A
C60          H65   1.083       .  S
C61          C62   1.395       .  A
C61        C1074   1.482       .  S
C62          C63   1.390       .  A
C62          H66   1.085       .  S
C63          C64   1.404       .  A
C63        C1084   1.480       .  S
C64          H67   1.084       .  S
C68          C69   1.423       .  A
C68          C73   1.423       .  A
C68        C1034   1.515       .  S
C69          C70   1.409       .  A
C69          H74   1.082       .  S
C70          C71   1.389       .  A
C70        C1044   1.483       .  S
C71          C72   1.388       .  A
C71          H75   1.086       .  S
C72          C73   1.407       .  A
C72        C1057   1.481       .  S
C73          H76   1.080       .  S
C77          C78   1.415       .  A
C77          C82   1.409       .  A
C77        C1007   1.488       .  S
C78          C79   1.408       .  A
C78          H83   1.083       .  S
C79          C80   1.393       .  A
C79        C1017   1.480       .  S
C80          C81   1.392       .  A
C80          H84   1.085       .  S
C81          C82   1.398       .  A
C81        C1024   1.465       .  S
C82          H85   1.083       .  S
O86         Ni94   1.902   1_554  S
O86          C96   1.275       .  A
O87         Ni94   1.899       .  S
O87          C97   1.276       .  A
O88         Ni94   1.934   1_554  S
O88          C98   1.286       .  A
O89         Ni94   1.928       .  S
O89          C99   1.285       .  A
O90         Ni95   1.894       .  S
O90          C99   1.274       .  A
O91         Ni95   1.884   1_554  S
O91          C98   1.274       .  A
O92         Ni95   1.935       .  S
O92          C97   1.286       .  A
O93         Ni95   1.933   1_554  S
O93          C96   1.286       .  A
Ni94        Ni95   2.391       .  S
C96        C1047   1.471       .  S
C97        C1087   1.478       .  S
C98         C987   1.467       .  S
C99         C994   1.464       .  S
O100       Ni108   1.906       .  S
O100        C110   1.277       .  A
O101       Ni108   1.910   1_556  S
O101        C111   1.277       .  A
O102       Ni108   1.929       .  S
O102        C112   1.285       .  A
O103       Ni108   1.925       .  S
O103        C113   1.284       .  A
O104       Ni109   1.905       .  S
O104        C113   1.276       .  A
O105       Ni109   1.892       .  S
O105        C112   1.274       .  A
O106       Ni109   1.935   1_556  S
O106        C111   1.287       .  A
O107       Ni109   1.931       .  S
O107        C110   1.285       .  A
Ni108      Ni109   2.391       .  S
C110       C1014   1.477       .  S
C111        C954   1.480       .  S
C112        C974   1.467       .  S
C113        C964   1.464       .  S
C114        C115   1.409       .  A
C114        C119   1.414       .  A
C114       C1164   1.488       .  S
C115        C116   1.402       .  A
C115        H120   1.084       .  S
C116        C117   1.390       .  A
C116        C984   1.472       .  S
C117        C118   1.393       .  A
C117        H121   1.086       .  S
C118        C119   1.405       .  A
C118        C967   1.473       .  S
C119        H122   1.083       .  S
C123        C124   1.420       .  A
C123        C128   1.418       .  A
C123        C934   1.507       .  S
C124        C125   1.409       .  A
C124        H129   1.082       .  S
C125        C126   1.393       .  A
C125        C957   1.484       .  S
C126        C127   1.391       .  A
C126        H130   1.085       .  S
C127        C128   1.406       .  A
C127        C944   1.479       .  S
C128        H131   1.083       .  S
C132        C133   1.415       .  A
C132        C137   1.414       .  A
C132        C907   1.491       .  S
C133        C134   1.406       .  A
C133        H138   1.083       .  S
C134        C135   1.393       .  A
C134        C924   1.483       .  S
C135        C136   1.391       .  A
C135        H139   1.086       .  S
C136        C137   1.407       .  A
C136        C914   1.476       .  S
C137        H140   1.083       .  S
O141       Ni149   1.901   1_655  S
O141        C151   1.276       .  A
O142       Ni149   1.899       .  S
O142        C152   1.275       .  A
O143       Ni149   1.933       .  S
O143        C153   1.286       .  A
O144       Ni149   1.938   1_655  S
O144        C154   1.287       .  A
O145       Ni150   1.884   1_655  S
O145        C154   1.273       .  A
O146       Ni150   1.895       .  S
O146        C153   1.274       .  A
O147       Ni150   1.926       .  S
O147        C152   1.285       .  A
O148       Ni150   1.927   1_655  S
O148        C151   1.285       .  A
Ni149      Ni150   2.392       .  S
C151        C884   1.468       .  S
C152        C894   1.465       .  S
C153        C917   1.469       .  S
C154       C1107   1.469       .  S
O155       Ni163   1.889       .  S
O155        C165   1.272       .  A
O156       Ni163   1.897   1_655  S
O156        C166   1.274       .  A
O157       Ni163   1.941       .  S
O157        C167   1.288       .  A
O158       Ni163   1.933   1_655  S
O158        C168   1.286       .  A
O159       Ni164   1.893   1_655  S
O159        C168   1.273       .  A
O160       Ni164   1.901       .  S
O160        C167   1.275       .  A
O161       Ni164   1.940   1_655  S
O161        C166   1.287       .  A
O162       Ni164   1.946       .  S
O162        C165   1.290       .  A
Ni163      Ni164   2.389       .  S
C165        C854   1.484       .  S
C166        C947   1.475       .  S
C167        C877   1.478       .  S
C168        C867   1.466       .  S
C169        C170   1.419       .  A
C169        C174   1.416       .  A
C169       C1127   1.499       .  S
C170        C171   1.409       .  A
C170        H175   1.083       .  S
C171        C172   1.391       .  A
C171        C874   1.481       .  S
C172        C173   1.390       .  A
C172        H176   1.085       .  S
C173        C174   1.405       .  A
C173        C897   1.481       .  S
C174        H177   1.083       .  S
C178        C179   1.408       .  A
C178        C183   1.414       .  A
C178        C834   1.485       .  S
C179        C180   1.400       .  A
C179        H184   1.084       .  S
C180        C181   1.391       .  A
C180        C844   1.469       .  S
C181        C182   1.392       .  A
C181        H185   1.085       .  S
C182        C183   1.409       .  A
C182        C857   1.479       .  S
C183        H186   1.083       .  S
C187        C188   1.417       .  A
C187        C192   1.421       .  A
C187        C807   1.502       .  S
C188        C189   1.405       .  A
C188        H193   1.082       .  S
C189        C190   1.388       .  A
C189        C824   1.477       .  S
C190        C191   1.388       .  A
C190        H194   1.086       .  S
C191        C192   1.407       .  A
C191        C814   1.476       .  S
C192        H195   1.083       .  S
O196       Ni204   1.897       .  S
O196        C206   1.274       .  A
O197       Ni204   1.896   1_545  S
O197        C207   1.274       .  A
O198       Ni204   1.935       .  S
O198        C208   1.287       .  A
O199       Ni204   1.941   1_545  S
O199        C209   1.288       .  A
O200       Ni205   1.890   1_545  S
O200        C209   1.273       .  A
O201       Ni205   1.885       .  S
O201        C208   1.272       .  A
O202       Ni205   1.932       .  S
O202        C207   1.287   1_565  A
O203       Ni205   1.933       .  S
O203        C206   1.286       .  A
Ni204      Ni205   2.391       .  S
C206        C784   1.467       .  S
C207        C794   1.469       .  S
C208       C1117   1.462       .  S
C209        C817   1.472       .  S
O210       Ni218   1.900       .  S
O210        C220   1.276       .  A
O211       Ni218   1.903   1_565  S
O211        C221   1.276       .  A
O212       Ni218   1.937   1_565  S
O212        C222   1.286       .  A
O213       Ni218   1.934       .  S
O213        C223   1.286       .  A
O214       Ni219   1.895       .  S
O214        C223   1.274       .  A
O215       Ni219   1.886   1_565  S
O215        C222   1.274       .  A
O216       Ni219   1.928   1_565  S
O216        C221   1.285       .  A
O217       Ni219   1.928       .  S
O217        C220   1.285       .  A
Ni218      Ni219   2.391       .  S
C220        C754   1.474       .  S
C221       C1077   1.471       .  S
C222        C774   1.469       .  S
C223        C764   1.468       .  S
C224        C225   1.414       .  A
C224        C229   1.415       .  A
C224       C1207   1.490       .  S
C225        C226   1.406       .  A
C225        H230   1.083       .  S
C226        C227   1.388       .  A
C226        C767   1.471       .  S
C227        C228   1.390       .  A
C227        H231   1.086       .  S
C228        C229   1.404       .  A
C228        C797   1.475       .  S
C229        H232   1.084       .  S
C233        C234   1.412       .  A
C233        C238   1.413       .  A
C233        C737   1.486       .  S
C234        C235   1.404       .  A
C234        H239   1.083       .  S
C235        C236   1.393       .  A
C235        C757   1.480       .  S
C236        C237   1.392       .  A
C236        H240   1.086       .  S
C237        C238   1.404       .  A
C237        C744   1.480       .  S
C238        H241   1.083       .  S
O242       Ni250   1.883       .  S
O242        C252   1.272       .  A
O243       Ni250   1.892   1_556  S
O243        C253   1.274       .  A
O244       Ni250   1.936   1_556  S
O244        C254   1.287       .  A
O245       Ni250   1.936       .  S
O245        C255   1.287       .  A
O246       Ni251   1.899   1_554  S
O246        C255   1.275       .  A
O247       Ni251   1.892       .  S
O247        C254   1.274       .  A
O248       Ni251   1.926       .  S
O248        C253   1.285       .  A
O249       Ni251   1.931   1_554  S
O249        C252   1.286       .  A
Ni250      Ni251   2.393   1_554  S
C252        C704   1.460       .  S
C253        C847   1.464       .  S
C254        C727   1.471       .  S
C255        C717   1.471       .  S
C256        C257   1.413       .  A
C256        C261   1.411       .  A
C256       C1137   1.488       .  S
C257        C258   1.406       .  A
C257        H262   1.083       .  S
C258        C259   1.394       .  A
C258        C724   1.484       .  S
C259        C260   1.392       .  A
C259        H263   1.085       .  S
C260        C261   1.402       .  A
C260        C997   1.469       .  S
C261        H264   1.083       .  S
O265       Ni273   1.888       .  S
O265        C275   1.274       .  A
O266       Ni273   1.899   1_655  S
O266        C276   1.275       .  A
O267       Ni273   1.924       .  S
O267        C277   1.285       .  A
O268       Ni273   1.919   1_655  S
O268        C278   1.283       .  A
O269       Ni274   1.902   1_655  S
O269        C278   1.275       .  A
O270       Ni274   1.894       .  S
O270        C277   1.274       .  A
O271       Ni274   1.934   1_655  S
O271        C276   1.286       .  A
O272       Ni274   1.939       .  S
O272        C275   1.287       .  A
Ni273      Ni274   2.393       .  S
C275        C687   1.474       .  S
C276        C694   1.471       .  S
C277        C674   1.462       .  S
C278       C1027   1.460       .  S
C279        C280   1.413       .  A
C279        C284   1.415       .  A
C279       C1184   1.492       .  S
C280        C281   1.405       .  A
C280        H285   1.083       .  S
C281        C282   1.392       .  A
C281        C887   1.476       .  S
C282        C283   1.392       .  A
C282        H286   1.086       .  S
C283        C284   1.407       .  A
C283        C697   1.478       .  S
C284        H287   1.083       .  S
C288        C289   1.408       .  A
C288        C293   1.410       .  A
C288        C664   1.481       .  S
C289        C290   1.399       .  A
C289        H294   1.083       .  S
C290        C291   1.388       .  A
C290        C707   1.462       .  S
C291        C292   1.393       .  A
C291        H295   1.085       .  S
C292        C293   1.404       .  A
C292        C677   1.472       .  S
C293        H296   1.084       .  S
O297       Ni305   1.901   1_554  S
O297        C307   1.275       .  A
O298       Ni305   1.898       .  S
O298        C308   1.276       .  A
O299       Ni305   1.934       .  S
O299        C309   1.286       .  A
O300       Ni305   1.931       .  S
O300        C310   1.286       .  A
O301       Ni306   1.893       .  S
O301        C310   1.274       .  A
O302       Ni306   1.888       .  S
O302        C309   1.273       .  A
O303       Ni306   1.928       .  S
O303        C308   1.285       .  A
O304       Ni306   1.935   1_554  S
O304        C307   1.286       .  A
Ni305      Ni306   2.391       .  S
C307        C637   1.469       .  S
C308        C747   1.476       .  S
C309        C644   1.463   1_556  S
C310        C654   1.470       .  S
C311        C312   1.414       .  A
C311        C316   1.411       .  A
C311       C1217   1.493       .  S
C312        C313   1.403       .  A
C312        H317   1.083       .  S
C313        C314   1.391       .  A
C313        C657   1.468       .  S
C314        C315   1.390       .  A
C314        H318   1.085       .  S
C315        C316   1.403       .  A
C315        C977   1.475       .  S
C316        H319   1.083       .  S
O320       Ni328   1.906       .  S
O320        C330   1.276       .  A
O321       Ni328   1.894   1_565  S
O321        C331   1.273       .  A
O322       Ni328   1.936   1_565  S
O322        C332   1.287       .  A
O323       Ni328   1.944       .  S
O323        C333   1.288       .  A
O324       Ni329   1.896       .  S
O324        C333   1.275       .  A
O325       Ni329   1.902   1_565  S
O325        C332   1.275       .  A
O326       Ni329   1.935   1_565  S
O326        C331   1.286       .  A
O327       Ni329   1.935       .  S
O327        C330   1.286       .  A
Ni328      Ni329   2.390       .  S
C330        C614   1.477       .  S
C331        C624   1.464       .  S
C332       C1054   1.474       .  S
C333        C604   1.482       .  S
C334        C335   1.416       .  A
C334        C339   1.420       .  A
C334       C1177   1.499       .  S
C335        C336   1.402       .  A
C335        H340   1.082       .  S
C336        C337   1.386       .  A
C336        C627   1.471       .  S
C337        C338   1.391       .  A
C337        H341   1.086       .  S
C338        C339   1.410       .  A
C338        C787   1.482       .  S
C339        H342   1.083       .  S
C343        C344   1.414       .  A
C343        C348   1.415       .  A
C343        C594   1.496       .  S
C344        C345   1.406       .  A
C344        H349   1.083       .  S
C345        C346   1.393       .  A
C345        C634   1.475       .  S
C346        C347   1.394       .  A
C346        H350   1.086       .  S
C347        C348   1.411       .  A
C347        C607   1.486       .  S
C348        H351   1.083       .  S
O352       Ni360   1.893       .  S
O352        C362   1.274       .  A
O353       Ni360   1.904       .  S
O353        C363   1.275       .  A
O354       Ni360   1.930       .  S
O354        C364   1.285       .  A
O355       Ni360   1.927   1_565  S
O355        C365   1.285       .  A
O356       Ni361   1.908   1_565  S
O356        C365   1.278       .  A
O357       Ni361   1.911       .  S
O357        C364   1.278       .  A
O358       Ni361   1.930       .  S
O358        C363   1.285       .  A
O359       Ni361   1.931       .  S
O359        C362   1.285       .  A
Ni360      Ni361   2.391       .  S
C362        C577   1.465       .  S
C363        C587   1.468   1_545  S
C364        C564   1.479       .  S
C365        C927   1.479       .  S
C366        C367   1.413       .  A
C366        C371   1.417       .  A
C366       C1147   1.497       .  S
C367        C368   1.405       .  A
C367        H372   1.083       .  S
C368        C369   1.387       .  A
C368        C777   1.474       .  S
C369        C370   1.391       .  A
C369        H373   1.086       .  S
C370        C371   1.406       .  A
C370        C584   1.473       .  S
C371        H374   1.083       .  S
O375       Ni383   1.896       .  S
O375        C385   1.273   1_655  A
O376       Ni383   1.886       .  S
O376        C386   1.274       .  A
O377       Ni383   1.931       .  S
O377        C387   1.286       .  A
O378       Ni383   1.936   1_455  S
O378        C388   1.287       .  A
O379       Ni384   1.896   1_455  S
O379        C388   1.274       .  A
O380       Ni384   1.893       .  S
O380        C387   1.274       .  A
O381       Ni384   1.940       .  S
O381        C386   1.287       .  A
O382       Ni384   1.936       .  S
O382        C385   1.287   1_655  A
Ni383      Ni384   2.390       .  S
C385        C544   1.466       .  S
C386        C554   1.475       .  S
C387        C827   1.466       .  S
C388        C534   1.477       .  S
C389        C390   1.412       .  A
C389        C394   1.411       .  A
C389       C1224   1.485       .  S
C390        C391   1.404       .  A
C390        H395   1.084       .  S
C391        C392   1.392       .  A
C391        C864   1.474       .  S
C392        C393   1.391       .  A
C392        H396   1.086       .  S
C393        C394   1.407       .  A
C393        C557   1.477       .  S
C394        H397   1.083       .  S
C398        C399   1.416       .  A
C398        C403   1.416       .  A
C398        C524   1.499       .  S
C399        C400   1.404       .  A
C399        H404   1.083       .  S
C400        C401   1.391       .  A
C400        C537   1.479       .  S
C401        C402   1.395       .  A
C401        H405   1.085       .  S
C402        C403   1.410       .  A
C402        C567   1.485       .  S
C403        H406   1.082       .  S
C407        C408   1.417       .  A
C407        C412   1.415       .  A
C407       C1264   1.496       .  S
C408        C409   1.406       .  A
C408        H413   1.083       .  S
C409        C410   1.390       .  A
C409        C547   1.472       .  S
C410        C411   1.388       .  A
C410        H414   1.086       .  S
C411        C412   1.406       .  A
C411        C684   1.477       .  S
C412        H415   1.083       .  S
C416        C417   1.414       .  A
C416        C421   1.417       .  A
C416       C1257   1.496       .  S
C417        C418   1.408       .  A
C417        H422   1.083       .  S
C418        C419   1.393       .  A
C418        C574   1.486       .  S
C419        C420   1.391       .  A
C419        H423   1.086       .  S
C420        C421   1.410       .  A
C420        C617   1.480       .  S
C421        H424   1.083       .  S
C425        C426   1.427       .  A
C425        C430   1.419       .  A
C425       C1244   1.516       .  S
C426        C427   1.411       .  A
C426        H431   1.082       .  S
C427        C428   1.386       .  A
C427        C714   1.477       .  S
C428        C429   1.384       .  A
C428        H432   1.087       .  S
C429        C430   1.405       .  A
C429        C647   1.470       .  S
C430        H433   1.081       .  S
C434        C435   1.547       .  S
C434        C440   1.552       .  S
C434        C438   1.551       .  S
C434        C517   1.562       .  S
C435        H442   1.085       .  S
C435        C436   1.369       .  D
C436        C437   1.536       .  S
C436        C734   1.493       .  S
C437        C441   1.530       .  S
C437        C439   1.539       .  S
C437        H443   1.108       .  S
C438        H444   1.086       .  S
C438        C439   1.376       .  D
C439        C527   1.505       .  S
C440        H445   1.075       .  S
C440        C441   1.364       .  D
C441        C837   1.487       .  S
C446        C447   1.549       .  S
C446        C452   1.560       .  S
C446        C450   1.558       .  S
C446        C504   1.572       .  S
C447        H454   1.086       .  S
C447        C448   1.370       .  D
C448        C449   1.529       .  S
C448       C1004   1.488       .  S
C449        C453   1.531       .  S
C449        C451   1.533       .  S
C449        H455   1.110       .  S
C450        H456   1.085       .  S
C450        C451   1.377       .  D
C451        C597   1.500       .  S
C452        H457   1.079       .  S
C452        C453   1.370       .  D
C453        C804   1.500       .  S
C458        C459   1.556       .  S
C458        C464   1.546       .  S
C458        C462   1.557       .  S
C458        C494   1.569       .  S
C459        H466   1.083       .  S
C459        C460   1.386       .  D
C460        C461   1.539       .  S
C460       C1067   1.533       .  S
C461        C465   1.539       .  S
C461        C463   1.532       .  S
C461        H467   1.086       .  S
C462        H468   1.078       .  S
C462        C463   1.366       .  D
C463       C1097   1.501       .  S
C464        H469   1.086       .  S
C464        C465   1.367       .  D
C465        C937   1.493       .  S
C470        C471   1.536       .  S
C470        C476   1.566       .  S
C470        C474   1.542       .  S
C470        C484   1.562       .  S
C471        H478   1.083       .  S
C471        C472   1.356       .  D
C472        C473   1.533       .  S
C472        C667   1.482       .  S
C473        C477   1.543       .  S
C473        C475   1.545       .  S
C473        H479   1.096       .  S
C474        H480   1.086       .  S
C474        C475   1.366       .  D
C475       C1037   1.497       .  S
C476        H481   1.083       .  S
C476        C477   1.391       .  D
C477        C904   1.526       .  S
C482        C487   1.595       .  S
C482        C497   1.586       .  S
C482        C507   1.600       .  S
C482        C514   1.593       .  S
C483        C484   1.406       .  A
C483        C488   1.414       .  A
C483        H490   1.081       .  S
C484        C485   1.426       .  A
C485        C486   1.406       .  A
C485       Br492   1.926       .  S
C486        C487   1.412       .  A
C486        H491   1.082       .  S
C487        C488   1.443       .  A
C488       Br489   1.929       .  S
C493        C494   1.413       .  A
C493        C498   1.409       .  A
C493        H500   1.074       .  S
C494        C495   1.420       .  A
C495        C496   1.413       .  A
C495       Br502   1.922       .  S
C496        C497   1.421       .  A
C496        H501   1.078       .  S
C497        C498   1.428       .  A
C498       Br499   1.923       .  S
C503        C504   1.415       .  A
C503        C508   1.414       .  A
C503        H510   1.073       .  S
C504        C505   1.418       .  A
C505        C506   1.412       .  A
C505       Br512   1.919       .  S
C506        C507   1.422       .  A
C506        H511   1.076       .  S
C507        C508   1.431       .  A
C508       Br509   1.922       .  S
C513        C514   1.416       .  A
C513        C518   1.407       .  A
C513        H520   1.077       .  S
C514        C515   1.437       .  A
C515        C516   1.411       .  A
C515       Br522   1.925       .  S
C516        C517   1.408       .  A
C516        H521   1.084       .  S
C517        C518   1.422       .  A
C518       Br519   1.922       .  S
C523        C524   1.403       .  A
C523        C528   1.399       .  A
C523        H530   1.083       .  S
C524        C525   1.415       .  A
C525        C526   1.409       .  A
C525       Br532   1.919       .  S
C526        C527   1.409       .  A
C526        H531   1.083       .  S
C527        C528   1.417       .  A
C528       Br529   1.915       .  S
C533        C534   1.401       .  A
C533        C538   1.399       .  A
C533        H540   1.084       .  S
C534        C535   1.416       .  A
C535        C536   1.399       .  A
C535       Br542   1.922       .  S
C536        C537   1.399       .  A
C536        H541   1.084       .  S
C537        C538   1.413       .  A
C538       Br539   1.920       .  S
C543        C544   1.399       .  A
C543        C548   1.396       .  A
C543        H550   1.083       .  S
C544        C545   1.408   1_455  A
C545        C546   1.402       .  A
C545       Br552   1.919       .  S
C546        C547   1.404   1_655  A
C546        H551   1.083       .  S
C547        C548   1.410       .  A
C548       Br549   1.919       .  S
C553        C554   1.406       .  A
C553        C558   1.393       .  A
C553        H560   1.084       .  S
C554        C555   1.408       .  A
C555        C556   1.401       .  A
C555       Br562   1.920       .  S
C556        C557   1.410       .  A
C556        H561   1.084       .  S
C557        C558   1.406       .  A
C558       Br559   1.920       .  S
C563        C564   1.407       .  A
C563        C568   1.404       .  A
C563        H570   1.082       .  S
C564        C565   1.407       .  A
C565        C566   1.396       .  A
C565       Br572   1.917       .  S
C566        C567   1.407       .  A
C566        H571   1.084       .  S
C567        C568   1.410       .  A
C568       Br569   1.919       .  S
C573        C574   1.412       .  A
C573        C578   1.397       .  A
C573        H580   1.084   1_545  S
C574        C575   1.410       .  A
C575        C576   1.396       .  A
C575       Br582   1.914       .  S
C576        C577   1.401       .  A
C576        H581   1.081       .  S
C577        C578   1.403       .  A
C578       Br579   1.920   1_545  S
C583        C584   1.405   1_545  A
C583        C588   1.395       .  A
C583        H590   1.084       .  S
C584        C585   1.407       .  A
C585        C586   1.402       .  A
C585       Br592   1.917       .  S
C586        C587   1.404       .  A
C586        H591   1.084       .  S
C587        C588   1.404   1_565  A
C588       Br589   1.916       .  S
C593        C594   1.408       .  A
C593        C598   1.409       .  A
C593        H600   1.083       .  S
C594        C595   1.410       .  A
C595        C596   1.403       .  A
C595       Br602   1.920       .  S
C596        C597   1.408       .  A
C596        H601   1.084       .  S
C597        C598   1.413       .  A
C598       Br599   1.917       .  S
C603        C604   1.407       .  A
C603        C608   1.398       .  A
C603        H610   1.082       .  S
C604        C605   1.407       .  A
C605        C606   1.402       .  A
C605       Br612   1.919       .  S
C606        C607   1.411       .  A
C606        H611   1.084       .  S
C607        C608   1.407       .  A
C608       Br609   1.920       .  S
C613        C614   1.406       .  A
C613        C618   1.403       .  A
C613        H620   1.084   1_545  S
C614        C615   1.407       .  A
C615        C616   1.398       .  A
C615       Br622   1.916       .  S
C616        C617   1.406       .  A
C616        H621   1.084       .  S
C617        C618   1.408       .  A
C618       Br619   1.918   1_545  S
C623        C624   1.405       .  A
C623        C628   1.400       .  A
C623        H630   1.084       .  S
C624        C625   1.403   1_565  A
C625        C626   1.396   1_545  A
C625       Br632   1.919       .  S
C626        C627   1.406       .  A
C626        H631   1.084   1_565  S
C627        C628   1.405       .  A
C628       Br629   1.917       .  S
C633        C634   1.403       .  A
C633        C638   1.401       .  A
C633        H640   1.084       .  S
C634        C635   1.410       .  A
C635        C636   1.398       .  A
C635       Br642   1.918       .  S
C636        C637   1.400       .  A
C636        H641   1.083       .  S
C637        C638   1.409       .  A
C638       Br639   1.920       .  S
C643        C644   1.404   1_556  A
C643        C648   1.397       .  A
C643        H650   1.084       .  S
C644        C645   1.404       .  A
C645        C646   1.397       .  A
C645       Br652   1.918       .  S
C646        C647   1.406       .  A
C646        H651   1.084       .  S
C647        C648   1.406   1_554  A
C648       Br649   1.919       .  S
C653        C654   1.401       .  A
C653        C658   1.397       .  A
C653        H660   1.084       .  S
C654        C655   1.414       .  A
C655        C656   1.396       .  A
C655       Br662   1.922   1_556  S
C656        C657   1.399       .  A
C656        H661   1.084       .  S
C657        C658   1.409       .  A
C658       Br659   1.919       .  S
C663        C664   1.403       .  A
C663        C668   1.397       .  A
C663        H670   1.084       .  S
C664        C665   1.411       .  A
C665        C666   1.400       .  A
C665       Br672   1.919       .  S
C666        C667   1.403       .  A
C666        H671   1.084       .  S
C667        C668   1.410       .  A
C668       Br669   1.911       .  S
C673        C674   1.398       .  A
C673        C678   1.393       .  A
C673        H680   1.084       .  S
C674        C675   1.410       .  A
C675        C676   1.396       .  A
C675       Br682   1.916       .  S
C676        C677   1.401       .  A
C676        H681   1.084       .  S
C677        C678   1.412       .  A
C678       Br679   1.921       .  S
C683        C684   1.408       .  A
C683        C688   1.398       .  A
C683        H690   1.084       .  S
C684        C685   1.404       .  A
C685        C686   1.397       .  A
C685       Br692   1.919   1_455  S
C686        C687   1.408       .  A
C686        H691   1.084   1_455  S
C687        C688   1.407       .  A
C688       Br689   1.919       .  S
C693        C694   1.398   1_455  A
C693        C698   1.395       .  A
C693        H700   1.080       .  S
C694        C695   1.411       .  A
C695        C696   1.402       .  A
C695       Br702   1.918       .  S
C696        C697   1.403       .  A
C696        H701   1.083       .  S
C697        C698   1.412   1_655  A
C698       Br699   1.921       .  S
C703        C704   1.404       .  A
C703        C708   1.393       .  A
C703        H710   1.084       .  S
C704        C705   1.405       .  A
C705        C706   1.396       .  A
C705       Br712   1.918       .  S
C706        C707   1.404       .  A
C706        H711   1.084       .  S
C707        C708   1.404       .  A
C708       Br709   1.919       .  S
C713        C714   1.402   1_556  A
C713        C718   1.402       .  A
C713        H720   1.083       .  S
C714        C715   1.413       .  A
C715        C716   1.398       .  A
C715       Br722   1.920       .  S
C716        C717   1.399       .  A
C716        H721   1.084       .  S
C717        C718   1.411   1_554  A
C718       Br719   1.919       .  S
C723        C724   1.410   1_554  A
C723        C728   1.397       .  A
C723        H730   1.084       .  S
C724        C725   1.411       .  A
C725        C726   1.397       .  A
C725       Br732   1.921       .  S
C726        C727   1.404       .  A
C726        H731   1.084       .  S
C727        C728   1.405   1_556  A
C728       Br729   1.920       .  S
C733        C734   1.406       .  A
C733        C738   1.400       .  A
C733        H740   1.083       .  S
C734        C735   1.416       .  A
C735        C736   1.401       .  A
C735       Br742   1.921       .  S
C736        C737   1.404       .  A
C736        H741   1.084       .  S
C737        C738   1.410       .  A
C738       Br739   1.920       .  S
C743        C744   1.408       .  A
C743        C748   1.394       .  A
C743        H750   1.084       .  S
C744        C745   1.406       .  A
C745        C746   1.401       .  A
C745       Br752   1.919       .  S
C746        C747   1.409       .  A
C746        H751   1.083       .  S
C747        C748   1.407       .  A
C748       Br749   1.921       .  S
C753        C754   1.408       .  A
C753        C758   1.401       .  A
C753        H760   1.083       .  S
C754        C755   1.407       .  A
C755        C756   1.393       .  A
C755       Br762   1.920       .  S
C756        C757   1.407       .  A
C756        H761   1.084       .  S
C757        C758   1.407       .  A
C758       Br759   1.918       .  S
C763        C764   1.403       .  A
C763        C768   1.397       .  A
C763        H770   1.084   1_545  S
C764        C765   1.406       .  A
C765        C766   1.399       .  A
C765       Br772   1.918       .  S
C766        C767   1.406       .  A
C766        H771   1.084       .  S
C767        C768   1.407       .  A
C768       Br769   1.919   1_545  S
C773        C774   1.405       .  A
C773        C778   1.394       .  A
C773        H780   1.083   1_565  S
C774        C775   1.405       .  A
C775        C776   1.399       .  A
C775       Br782   1.919       .  S
C776        C777   1.408       .  A
C776        H781   1.084       .  S
C777        C778   1.405       .  A
C778       Br779   1.920   1_565  S
C783        C784   1.407       .  A
C783        C788   1.405       .  A
C783        H790   1.084       .  S
C784        C785   1.402       .  A
C785        C786   1.392       .  A
C785       Br792   1.918   1_565  S
C786        C787   1.408       .  A
C786        H791   1.084   1_565  S
C787        C788   1.409       .  A
C788       Br789   1.918       .  S
C793        C794   1.398   1_565  A
C793        C798   1.393       .  A
C793        H800   1.084       .  S
C794        C795   1.413       .  A
C795        C796   1.401       .  A
C795       Br802   1.920       .  S
C796        C797   1.402       .  A
C796        H801   1.083       .  S
C797        C798   1.412   1_545  A
C798       Br799   1.922       .  S
C803        C804   1.406       .  A
C803        C808   1.405       .  A
C803        H810   1.083       .  S
C804        C805   1.413       .  A
C805        C806   1.403       .  A
C805       Br812   1.917       .  S
C806        C807   1.407       .  A
C806        H811   1.083       .  S
C807        C808   1.418       .  A
C808       Br809   1.921       .  S
C813        C814   1.401       .  A
C813        C818   1.400       .  A
C813        H820   1.084       .  S
C814        C815   1.412       .  A
C815        C816   1.398       .  A
C815       Br822   1.919       .  S
C816        C817   1.399       .  A
C816        H821   1.083       .  S
C817        C818   1.413       .  A
C818       Br819   1.921       .  S
C823        C824   1.407       .  A
C823        C828   1.394       .  A
C823        H830   1.084       .  S
C824        C825   1.408       .  A
C825        C826   1.400       .  A
C825       Br832   1.918       .  S
C826        C827   1.405       .  A
C826        H831   1.084       .  S
C827        C828   1.404       .  A
C828       Br829   1.921       .  S
C833        C834   1.404       .  A
C833        C838   1.401       .  A
C833        H840   1.084       .  S
C834        C835   1.410       .  A
C835        C836   1.401       .  A
C835       Br842   1.919       .  S
C836        C837   1.405       .  A
C836        H841   1.084       .  S
C837        C838   1.410       .  A
C838       Br839   1.915       .  S
C843        C844   1.398       .  A
C843        C848   1.395       .  A
C843        H850   1.084       .  S
C844        C845   1.412       .  A
C845        C846   1.395       .  A
C845       Br852   1.921       .  S
C846        C847   1.399       .  A
C846        H851   1.084       .  S
C847        C848   1.412       .  A
C848       Br849   1.921       .  S
C853        C854   1.404       .  A
C853        C858   1.400       .  A
C853        H860   1.083       .  S
C854        C855   1.421       .  A
C855        C856   1.396       .  A
C855       Br862   1.919       .  S
C856        C857   1.396       .  A
C856        H861   1.084       .  S
C857        C858   1.413       .  A
C858       Br859   1.921       .  S
C863        C864   1.401       .  A
C863        C868   1.399       .  A
C863        H870   1.084       .  S
C864        C865   1.412       .  A
C865        C866   1.395   1_655  A
C865       Br872   1.922   1_655  S
C866        C867   1.398   1_455  A
C866        H871   1.084       .  S
C867        C868   1.411       .  A
C868       Br869   1.920       .  S
C873        C874   1.406       .  A
C873        C878   1.397       .  A
C873        H880   1.084       .  S
C874        C875   1.408       .  A
C875        C876   1.404       .  A
C875       Br882   1.917   1_455  S
C876        C877   1.407       .  A
C876        H881   1.084   1_455  S
C877        C878   1.405       .  A
C878       Br879   1.911       .  S
C883        C884   1.403       .  A
C883        C888   1.397       .  A
C883        H890   1.084   1_655  S
C884        C885   1.405       .  A
C885        C886   1.397       .  A
C885       Br892   1.919       .  S
C886        C887   1.407       .  A
C886        H891   1.084       .  S
C887        C888   1.408       .  A
C888       Br889   1.916   1_655  S
C893        C894   1.398   1_655  A
C893        C898   1.393       .  A
C893        H900   1.084       .  S
C894        C895   1.409       .  A
C895        C896   1.402       .  A
C895       Br902   1.918       .  S
C896        C897   1.405       .  A
C896        H901   1.083       .  S
C897        C898   1.414   1_455  A
C898       Br899   1.923       .  S
C903        C904   1.417       .  A
C903        C908   1.408       .  A
C903        H910   1.081       .  S
C904        C905   1.434       .  A
C905        C906   1.399       .  A
C905       Br912   1.916       .  S
C906        C907   1.393       .  A
C906        H911   1.085       .  S
C907        C908   1.408       .  A
C908       Br909   1.917       .  S
C913        C914   1.400       .  A
C913        C918   1.399       .  A
C913        H920   1.084       .  S
C914        C915   1.414       .  A
C915        C916   1.398       .  A
C915       Br922   1.921       .  S
C916        C917   1.399       .  A
C916        H921   1.084       .  S
C917        C918   1.411       .  A
C918       Br919   1.920       .  S
C923        C924   1.407       .  A
C923        C928   1.395       .  A
C923        H930   1.084       .  S
C924        C925   1.408       .  A
C925        C926   1.403       .  A
C925       Br932   1.918       .  S
C926        C927   1.408       .  A
C926        H931   1.083       .  S
C927        C928   1.409       .  A
C928       Br929   1.922       .  S
C933        C934   1.414       .  A
C933        C938   1.408       .  A
C933        H940   1.083       .  S
C934        C935   1.418       .  A
C935        C936   1.403       .  A
C935       Br942   1.923       .  S
C936        C937   1.399       .  A
C936        H941   1.082       .  S
C937        C938   1.408       .  A
C938       Br939   1.917       .  S
C943        C944   1.401       .  A
C943        C948   1.400       .  A
C943        H950   1.084       .  S
C944        C945   1.412       .  A
C945        C946   1.400       .  A
C945       Br952   1.918       .  S
C946        C947   1.400       .  A
C946        H951   1.083       .  S
C947        C948   1.414       .  A
C948       Br949   1.922       .  S
C953        C954   1.400       .  A
C953        C958   1.397       .  A
C953        H960   1.082       .  S
C954        C955   1.414       .  A
C955        C956   1.405       .  A
C955       Br962   1.919       .  S
C956        C957   1.404       .  A
C956        H961   1.084       .  S
C957        C958   1.412       .  A
C958       Br959   1.921       .  S
C963        C964   1.398   1_556  A
C963        C968   1.394   1_556  A
C963        H970   1.083       .  S
C964        C965   1.408       .  A
C965        C966   1.401       .  A
C965       Br972   1.917       .  S
C966        C967   1.403       .  A
C966        H971   1.083       .  S
C967        C968   1.411       .  A
C968       Br969   1.921   1_554  S
C973        C974   1.401       .  A
C973        C978   1.398       .  A
C973        H980   1.084       .  S
C974        C975   1.411   1_554  A
C975        C976   1.393       .  A
C975       Br982   1.920       .  S
C976        C977   1.400       .  A
C976        H981   1.083       .  S
C977        C978   1.413   1_556  A
C978       Br979   1.921       .  S
C983        C984   1.408       .  A
C983        C988   1.398       .  A
C983        H990   1.084       .  S
C984        C985   1.406       .  A
C985        C986   1.392       .  A
C985       Br992   1.921   1_554  S
C986        C987   1.405       .  A
C986        H991   1.084   1_554  S
C987        C988   1.406       .  A
C988       Br989   1.919       .  S
C993        C994   1.402       .  A
C993        C998   1.396       .  A
C993       H1000   1.084   1_556  S
C994        C995   1.404       .  A
C995        C996   1.397       .  A
C995      Br1002   1.918       .  S
C996        C997   1.405       .  A
C996       H1001   1.084       .  S
C997        C998   1.406       .  A
C998       Br999   1.918   1_556  S
C1003      C1004   1.404       .  A
C1003      C1008   1.399       .  A
C1003      H1010   1.084       .  S
C1004      C1005   1.411       .  A
C1005      C1006   1.402       .  A
C1005     Br1012   1.914       .  S
C1006      C1007   1.405       .  A
C1006      H1011   1.083       .  S
C1007      C1008   1.413       .  A
C1008     Br1009   1.922       .  S
C1013      C1014   1.402       .  A
C1013      C1018   1.398       .  A
C1013      H1020   1.084       .  S
C1014      C1015   1.413       .  A
C1015      C1016   1.401       .  A
C1015     Br1022   1.919       .  S
C1016      C1017   1.402       .  A
C1016      H1021   1.084       .  S
C1017      C1018   1.412       .  A
C1018     Br1019   1.921       .  S
C1023      C1024   1.402       .  A
C1023      C1028   1.397       .  A
C1023      H1030   1.084       .  S
C1024      C1025   1.406       .  A
C1025      C1026   1.394       .  A
C1025     Br1032   1.919       .  S
C1026      C1027   1.400       .  A
C1026      H1031   1.084       .  S
C1027      C1028   1.406       .  A
C1028     Br1029   1.917       .  S
C1033      C1034   1.417       .  A
C1033      C1038   1.410       .  A
C1033      H1040   1.082       .  S
C1034      C1035   1.422       .  A
C1035      C1036   1.404       .  A
C1035     Br1042   1.926       .  S
C1036      C1037   1.399       .  A
C1036      H1041   1.083       .  S
C1037      C1038   1.406       .  A
C1038     Br1039   1.916       .  S
C1043      C1044   1.407       .  A
C1043      C1048   1.392       .  A
C1043      H1050   1.083       .  S
C1044      C1045   1.408       .  A
C1045      C1046   1.406       .  A
C1045     Br1052   1.917       .  S
C1046      C1047   1.408       .  A
C1046      H1051   1.083       .  S
C1047      C1048   1.404       .  A
C1048     Br1049   1.920       .  S
C1053      C1054   1.399       .  A
C1053      C1058   1.397       .  A
C1053      H1060   1.084       .  S
C1054      C1055   1.412       .  A
C1055      C1056   1.405       .  A
C1055     Br1062   1.919       .  S
C1056      C1057   1.403       .  A
C1056      H1061   1.083       .  S
C1057      C1058   1.413       .  A
C1058     Br1059   1.920       .  S
C1063      C1064   1.393       .  A
C1063      C1068   1.399       .  A
C1063      H1070   1.085       .  S
C1064      C1065   1.407       .  A
C1065      C1066   1.410       .  A
C1065     Br1072   1.918       .  S
C1066      C1067   1.420       .  A
C1066      H1071   1.080       .  S
C1067      C1068   1.437       .  A
C1068     Br1069   1.920       .  S
C1073      C1074   1.407       .  A
C1073      C1078   1.394       .  A
C1073      H1080   1.084       .  S
C1074      C1075   1.410       .  A
C1075      C1076   1.403       .  A
C1075     Br1082   1.918       .  S
C1076      C1077   1.405       .  A
C1076      H1081   1.084       .  S
C1077      C1078   1.406       .  A
C1078     Br1079   1.921       .  S
C1083      C1084   1.408       .  A
C1083      C1088   1.399       .  A
C1083      H1090   1.084       .  S
C1084      C1085   1.406       .  A
C1085      C1086   1.398       .  A
C1085     Br1092   1.919       .  S
C1086      C1087   1.407       .  A
C1086      H1091   1.083       .  S
C1087      C1088   1.408       .  A
C1088     Br1089   1.919       .  S
C1093      C1094   1.407       .  A
C1093      C1098   1.404       .  A
C1093      H1100   1.084       .  S
C1094      C1095   1.410       .  A
C1095      C1096   1.399       .  A
C1095     Br1102   1.921       .  S
C1096      C1097   1.408       .  A
C1096      H1101   1.083       .  S
C1097      C1098   1.416       .  A
C1098     Br1099   1.920       .  S
C1103      C1104   1.410       .  A
C1103      C1108   1.396       .  A
C1103      H1110   1.084       .  S
C1104      C1105   1.407       .  A
C1105      C1106   1.397       .  A
C1105     Br1112   1.919       .  S
C1106      C1107   1.406       .  A
C1106      H1111   1.083       .  S
C1107      C1108   1.405       .  A
C1108     Br1109   1.920       .  S
C1113      C1114   1.407       .  A
C1113      C1118   1.395       .  A
C1113      H1120   1.084       .  S
C1114      C1115   1.406       .  A
C1115      C1116   1.396       .  A
C1115     Br1122   1.919       .  S
C1116      C1117   1.404       .  A
C1116      H1121   1.084       .  S
C1117      C1118   1.404       .  A
C1118     Br1119   1.919       .  S
C1123      C1124   1.408       .  A
C1123      C1128   1.409       .  A
C1123      H1130   1.083       .  S
C1124      C1125   1.415       .  A
C1125      C1126   1.400       .  A
C1125     Br1132   1.915       .  S
C1126      C1127   1.404       .  A
C1126      H1131   1.084       .  S
C1127      C1128   1.414       .  A
C1128     Br1129   1.917       .  S
C1133      C1134   1.407       .  A
C1133      C1138   1.403       .  A
C1133      H1140   1.083       .  S
C1134      C1135   1.410       .  A
C1135      C1136   1.399       .  A
C1135     Br1142   1.917       .  S
C1136      C1137   1.405       .  A
C1136      H1141   1.083       .  S
C1137      C1138   1.411       .  A
C1138     Br1139   1.920       .  S
C1143      C1144   1.405       .  A
C1143      C1148   1.402       .  A
C1143      H1150   1.083       .  S
C1144      C1145   1.416       .  A
C1145      C1146   1.403       .  A
C1145     Br1152   1.919       .  S
C1146      C1147   1.406       .  A
C1146      H1151   1.083       .  S
C1147      C1148   1.415       .  A
C1148     Br1149   1.921       .  S
C1153      C1154   1.410       .  A
C1153      C1158   1.408       .  A
C1153      H1160   1.084       .  S
C1154      C1155   1.425       .  A
C1155      C1156   1.409       .  A
C1155     Br1162   1.919   1_565  S
C1156      C1157   1.420       .  A
C1156      H1161   1.084   1_565  S
C1157      C1158   1.435       .  A
C1158     Br1159   1.926   1_556  S
C1163      C1164   1.403       .  A
C1163      C1168   1.399       .  A
C1163      H1170   1.083       .  S
C1164      C1165   1.411       .  A
C1165      C1166   1.403       .  A
C1165     Br1172   1.920   1_554  S
C1166      C1167   1.409       .  A
C1166      H1171   1.083       .  S
C1167      C1168   1.414       .  A
C1168     Br1169   1.917       .  S
C1173      C1174   1.405       .  A
C1173      C1178   1.404       .  A
C1173      H1180   1.083       .  S
C1174      C1175   1.415       .  A
C1175      C1176   1.403       .  A
C1175     Br1182   1.916       .  S
C1176      C1177   1.405       .  A
C1176      H1181   1.083       .  S
C1177      C1178   1.416       .  A
C1178     Br1179   1.921       .  S
C1183      C1184   1.403       .  A
C1183      C1188   1.402       .  A
C1183      H1190   1.084       .  S
C1184      C1185   1.413       .  A
C1185      C1186   1.404       .  A
C1185     Br1192   1.916   1_655  S
C1186      C1187   1.405       .  A
C1186      H1191   1.083       .  S
C1187      C1188   1.415       .  A
C1188     Br1189   1.916       .  S
C1193      C1194   1.411       .  A
C1193      C1198   1.407       .  A
C1193      H1200   1.074       .  S
C1194      C1195   1.421       .  A
C1195      C1196   1.415       .  A
C1195     Br1202   1.922       .  S
C1196      C1197   1.422       .  A
C1196      H1201   1.080   1_655  S
C1197      C1198   1.429       .  A
C1198     Br1199   1.917   1_554  S
C1203      C1204   1.408       .  A
C1203      C1208   1.407       .  A
C1203      H1210   1.083       .  S
C1204      C1205   1.415       .  A
C1205      C1206   1.396       .  A
C1205     Br1212   1.914       .  S
C1206      C1207   1.400       .  A
C1206      H1211   1.084       .  S
C1207      C1208   1.413       .  A
C1208     Br1209   1.918       .  S
C1213      C1214   1.398       .  A
C1213      C1218   1.398       .  A
C1213      H1220   1.083       .  S
C1214      C1215   1.406       .  A
C1215      C1216   1.401       .  A
C1215     Br1222   1.918       .  S
C1216      C1217   1.408       .  A
C1216      H1221   1.083       .  S
C1217      C1218   1.418       .  A
C1218     Br1219   1.923       .  S
C1223      C1224   1.405       .  A
C1223      C1228   1.408       .  A
C1223      H1230   1.084       .  S
C1224      C1225   1.405       .  A
C1225      C1226   1.396       .  A
C1225     Br1232   1.920       .  S
C1226      C1227   1.407       .  A
C1226      H1231   1.081       .  S
C1227      C1228   1.418       .  A
C1228     Br1229   1.919       .  S
C1233      C1234   1.404       .  A
C1233      C1238   1.409       .  A
C1233      H1240   1.084       .  S
C1234      C1235   1.421       .  A
C1235      C1236   1.411       .  A
C1235     Br1242   1.923       .  S
C1236      C1237   1.417       .  A
C1236      H1241   1.075   1_556  S
C1237      C1238   1.444       .  A
C1238     Br1239   1.936   1_545  S
C1243      C1244   1.410       .  A
C1243      C1248   1.403       .  A
C1243      H1250   1.081       .  S
C1244      C1245   1.425       .  A
C1245      C1246   1.410       .  A
C1245     Br1252   1.922   1_554  S
C1246      C1247   1.402       .  A
C1246      H1251   1.083       .  S
C1247      C1248   1.409       .  A
C1248     Br1249   1.914       .  S
C1253      C1254   1.409       .  A
C1253      C1258   1.401       .  A
C1253      H1260   1.082       .  S
C1254      C1255   1.420       .  A
C1255      C1256   1.409       .  A
C1255     Br1262   1.914       .  S
C1256      C1257   1.404       .  A
C1256      H1261   1.083       .  S
C1257      C1258   1.410       .  A
C1258     Br1259   1.916       .  S
C1263      C1264   1.403       .  A
C1263      C1268   1.406       .  A
C1263      H1270   1.083       .  S
C1264      C1265   1.409       .  A
C1265      C1266   1.402       .  A
C1265     Br1272   1.921       .  S
C1266      C1267   1.412       .  A
C1266      H1271   1.078       .  S
C1267      C1268   1.425       .  A
C1268     Br1269   1.922       .  S
C1273      C1274   1.430       .  A
C1273      C1278   1.409       .  A
C1273      H1280   1.076       .  S
C1274      C1275   1.441       .  A
C1275      C1276   1.419       .  A
C1275     Br1282   1.919   1_455  S
C1276      C1277   1.412       .  A
C1276      H1281   1.074       .  S
C1277      C1278   1.413       .  A
C1278     Br1279   1.921       .  S
