geometry optimzed in LAMMPS
_audit_creation_date              2020-12-01 
_audit_creation_method            'lammps2cif' 
_symmetry_space_group_name_H-M    'P1' 
_symmetry_Int_Tables_number       1 
_symmetry_cell_setting            triclinic 
loop_ 
_symmetry_equiv_pos_as_xyz 
  x,y,z 
_cell_length_a                    35.43064859 
_cell_length_b                    35.432476604372866 
_cell_length_c                    35.42861285458204 
_cell_angle_alpha                 90.00045092538706 
_cell_angle_beta                  90.00080414532523 
_cell_angle_gamma                 89.9333901227147 
loop_ 
_atom_site_label 
_atom_site_type_symbol 
_atom_site_fract_x 
_atom_site_fract_y 
_atom_site_fract_z 
_atom_site_charge 
C1          C  0.11004061  0.86287402  0.46573443     0.04300
C2          C  0.09364854  0.85139993  0.50009582     0.04300
C3          C  0.11005000  0.86286228  0.53445740     0.04300
C4          C  0.13819058  0.89110690  0.53445508     0.04300
C5          C  0.14957548  0.90756472  0.50010087     0.04300
C6          C  0.13817853  0.89112033  0.46574429     0.04300
C7          C  0.13618033  0.10473638  0.53446526     0.04300
C8          C  0.14765324  0.08831735  0.50010141     0.04300
C9          C  0.13617434  0.10472997  0.46573535     0.04300
C10         C  0.10799936  0.13301436  0.46573058     0.04300
C11         C  0.09163968  0.14456690  0.50009831     0.04300
C12         C  0.10800393  0.13301863  0.53446613     0.04300
C13         C  0.89472434  0.13485768  0.53445476     0.04300
C14         C  0.91110707  0.14634445  0.50009422     0.04300
C15         C  0.89473381  0.13484722  0.46573423     0.04300
C16         C  0.86662743  0.10656949  0.46573548     0.04300
C17         C  0.85523364  0.09012329  0.50009698     0.04300
C18         C  0.86661565  0.10658126  0.53445596     0.04300
C19         C  0.89669230  0.86467530  0.53445803     0.04300
C20         C  0.91306620  0.85313900  0.50009113     0.04300
C21         C  0.89670055  0.86468411  0.46572327     0.04300
C22         C  0.86852095  0.89296369  0.46572525     0.04300
C23         C  0.85703729  0.90937194  0.50009433     0.04300
C24         C  0.86851066  0.89295215  0.53446056     0.04300
C25         C  0.53642247  0.13392756  0.10688501     0.04300
C26         C  0.50204066  0.14530386  0.09042168     0.04300
C27         C  0.46769240  0.13368162  0.10672822     0.04300
C28         C  0.46774885  0.10550235  0.13496569     0.04300
C29         C  0.50215839  0.08922586  0.14653302     0.04300
C30         C  0.53648367  0.10569667  0.13507967     0.04300
C31         C  0.53641496  0.13387348  0.89335364     0.04300
C32         C  0.50203353  0.14525484  0.90981302     0.04300
C33         C  0.46768633  0.13363332  0.89350595     0.04300
C34         C  0.46773721  0.10545985  0.86526355     0.04300
C35         C  0.50214786  0.08919260  0.85368322     0.04300
C36         C  0.53647665  0.10564826  0.86515276     0.04300
C37         C  0.53696847  0.89234540  0.13489717     0.04300
C38         C  0.50256135  0.90866930  0.14640141     0.04300
C39         C  0.46823789  0.89222496  0.13491153     0.04300
C40         C  0.46830384  0.86395836  0.10675491     0.04300
C41         C  0.50269760  0.85251282  0.09036740     0.04300
C42         C  0.53703655  0.86412584  0.10669986     0.04300
C43         C  0.53696773  0.89237286  0.86532235     0.04300
C44         C  0.50255942  0.90868982  0.85380952     0.04300
C45         C  0.46823261  0.89226388  0.86532053     0.04300
C46         C  0.46830278  0.86400347  0.89348251     0.04300
C47         C  0.50269687  0.85255167  0.90986287     0.04300
C48         C  0.53703371  0.86416121  0.89352597     0.04300
C49         C  0.10923824  0.53294679  0.86542887     0.04300
C50         C  0.09279120  0.49861050  0.85397277     0.04300
C51         C  0.10908141  0.46420610  0.86553380     0.04300
C52         C  0.13733050  0.46416626  0.89370144     0.04300
C53         C  0.14902322  0.49852529  0.90994303     0.04300
C54         C  0.13752701  0.53291005  0.89356489     0.04300
C55         C  0.13728375  0.46416983  0.10649949     0.04300
C56         C  0.14897905  0.49853075  0.09026177     0.04300
C57         C  0.13748300  0.53291606  0.10663946     0.04300
C58         C  0.10920374  0.53295583  0.13478378     0.04300
C59         C  0.09276758  0.49861749  0.14625434     0.04300
C60         C  0.10904331  0.46421006  0.13467591     0.04300
C61         C  0.89594848  0.53342421  0.13468013     0.04300
C62         C  0.91226688  0.49901547  0.14618954     0.04300
C63         C  0.89584473  0.46468676  0.13468267     0.04300
C64         C  0.86754213  0.46474541  0.10656422     0.04300
C65         C  0.85600835  0.49914396  0.09024756     0.04300
C66         C  0.86767902  0.53348730  0.10653287     0.04300
C67         C  0.86749991  0.46474758  0.89364736     0.04300
C68         C  0.89581009  0.46468913  0.86553709     0.04300
C69         C  0.91224130  0.49901607  0.85404244     0.04300
C70         C  0.89590744  0.53342138  0.86553173     0.04300
C71         C  0.86763162  0.53348677  0.89367103     0.04300
C72         C  0.85596611  0.49914559  0.90996286     0.04300
O73         O  0.14981018  0.95922222  0.79804975    -0.78200
O74         O  0.20357416  0.03753003  0.85253397    -0.78200
O75         O  0.23556055  0.91811375  0.81872088    -0.78200
O76         O  0.18322638  0.07888132  0.76684566    -0.78100
O77         O  0.20405341  0.95933546  0.85263611    -0.78200
O78         O  0.14929578  0.03742553  0.79793404    -0.78200
O79         O  0.23464319  0.07903959  0.81863894    -0.78200
O80         O  0.18409513  0.91794512  0.76699325    -0.78200
C81         C  0.15551459  0.92584921  0.78714679     1.11500
C82         C  0.21440520  0.07095119  0.84709718     1.11400
C83         C  0.21526374  0.92600683  0.84720414     1.11600
C84         C  0.15467001  0.07082346  0.78695256     1.11400
O85         O  0.17046353  0.03476364  0.71829233    -0.78200
O86         O  0.28383064  0.96234829  0.83197156    -0.78200
O87         O  0.23270572  0.95862064  0.71400533    -0.78200
O88         O  0.28814309  0.03876001  0.77016342    -0.78100
O89         O  0.28341465  0.03527450  0.83194223    -0.78200
O90         O  0.17088661  0.96183935  0.71835452    -0.78200
O91         O  0.23224392  0.03853564  0.71389782    -0.78100
O92         O  0.28857233  0.95885450  0.77019671    -0.78200
Co93       Co  0.16385548  0.99832179  0.76151488     1.51500
Co94       Co  0.24037979  0.99861399  0.83850836     1.51700
Co95       Co  0.23513042  0.94353119  0.76754238     1.51600
Co96       Co  0.23452453  0.05365367  0.76746080     1.51500
O97         O  0.21877961  0.99853425  0.78344946    -1.40100
C98         C  0.19993177  0.04109027  0.69897992     1.11500
C99         C  0.30332476  0.95619796  0.80256880     1.11600
C100        C  0.20044351  0.95573619  0.69907560     1.11500
C101        C  0.30287355  0.04150896  0.80254228     1.11500
O102        O  0.04092211  0.14579119  0.79799113    -0.78200
O103        O  0.96277630  0.20043744  0.85279437    -0.78200
O104        O  0.08250322  0.23107709  0.81882320    -0.78200
O105        O  0.92140776  0.18055435  0.76715368    -0.78100
O106        O  0.04100492  0.19996651  0.85270356    -0.78200
O107        O  0.96272680  0.14625581  0.79814403    -0.78200
O108        O  0.92155939  0.23198614  0.81891040    -0.78200
O109        O  0.08235402  0.17976658  0.76692588    -0.78200
C110        C  0.07431340  0.15118359  0.78699977     1.11500
C111        C  0.92943994  0.21163552  0.84735750     1.11400
C112        C  0.07443215  0.21078969  0.84725156     1.11600
C113        C  0.92934178  0.15195703  0.78727216     1.11400
O114        O  0.96528091  0.16741460  0.71847411    -0.78200
O115        O  0.03873651  0.27982431  0.83222985    -0.78200
O116        O  0.04197050  0.22886883  0.71408632    -0.78200
O117        O  0.96229962  0.28503157  0.77042890    -0.78100
O118        O  0.96580318  0.28023403  0.83220323    -0.78200
O119        O  0.03821215  0.16708035  0.71837356    -0.78200
O120        O  0.96204179  0.22922907  0.71418092    -0.78100
O121        O  0.04220977  0.28466758  0.77046103    -0.78200
Co122      Co  0.00179625  0.16037176  0.76160688     1.51500
Co123      Co  0.00206971  0.23678068  0.83871350     1.51700
Co124      Co  0.05710632  0.23105336  0.76764924     1.51600
Co125      Co  0.94697518  0.23160017  0.76773158     1.51500
O126        O  0.00199104  0.21525968  0.78361965    -1.40100
C127        C  0.95916192  0.19698200  0.69922110     1.11500
C128        C  0.04497352  0.29933711  0.80286702     1.11600
C129        C  0.04451852  0.19658459  0.69910916     1.11500
C130        C  0.95966711  0.29975595  0.80281476     1.11500
O131        O  0.04192924  0.85149666  0.20204952    -0.78200
O132        O  0.96364010  0.79761594  0.14747455    -0.78200
O133        O  0.08316898  0.76587009  0.18123530    -0.78200
O134        O  0.92230462  0.81780811  0.23320288    -0.78100
O135        O  0.04187098  0.79732718  0.14735901    -0.78200
O136        O  0.96370421  0.85184880  0.20215559    -0.78200
O137        O  0.92222459  0.76642352  0.18137303    -0.78200
O138        O  0.08326163  0.81723346  0.23305802    -0.78200
C139        C  0.07531570  0.84582181  0.21293856     1.11500
C140        C  0.93023861  0.78671600  0.15293378     1.11400
C141        C  0.07523264  0.78620029  0.15278556     1.11600
C142        C  0.93031032  0.84639902  0.21312225     1.11400
O143        O  0.96640532  0.83059908  0.28177034    -0.78200
O144        O  0.03904637  0.71751416  0.16793223    -0.78200
O145        O  0.04270880  0.76849453  0.28598944    -0.78200
O146        O  0.96264756  0.71297811  0.22977798    -0.78100
O147        O  0.96611107  0.71777338  0.16800082    -0.78200
O148        O  0.03934191  0.83031094  0.28171700    -0.78200
O149        O  0.96276450  0.76881251  0.28610503    -0.78100
O150        O  0.04255090  0.71269733  0.22970032    -0.78200
Co151      Co  0.00284175  0.83732462  0.23856025     1.51500
Co152      Co  0.00267133  0.76089446  0.16146158     1.51700
Co153      Co  0.05776988  0.76616459  0.23243038     1.51600
Co154      Co  0.94763810  0.76655725  0.23253940     1.51500
O155        O  0.00272684  0.78243016  0.21655320    -1.40100
C156        C  0.96015086  0.80110169  0.30105843     1.11500
C157        C  0.04522877  0.69798909  0.19730947     1.11600
C158        C  0.04553323  0.80074685  0.30095745     1.11500
C159        C  0.95992186  0.69827587  0.19738467     1.11500
O160        O  0.28438886  0.83024248  0.03656746    -0.78200
O161        O  0.17094572  0.71723031  0.96362223    -0.78200
O162        O  0.23266759  0.71253498  0.04012643    -0.78200
O163        O  0.28888318  0.76845262  0.96010196    -0.78100
O164        O  0.17089343  0.71727103  0.03657545    -0.78200
O165        O  0.28439168  0.83024411  0.96361645    -0.78200
O166        O  0.23272635  0.71251431  0.96010594    -0.78200
O167        O  0.28885220  0.76844882  0.04013467    -0.78200
C168        C  0.30372992  0.80074589  0.04282511     1.11500
C169        C  0.20037053  0.69776154  0.95740939     1.11400
C170        C  0.20030617  0.69779468  0.04281548     1.11600
C171        C  0.30374840  0.80075244  0.95739340     1.11400
O172        O  0.20469673  0.85133690  0.96096436    -0.78200
O173        O  0.15013481  0.79706871  0.03916442    -0.78200
O174        O  0.23579498  0.81727477  0.08058834    -0.78200
O175        O  0.18414460  0.76574147  0.91957948    -0.78100
O176        O  0.15016972  0.79702320  0.96092233    -0.78200
O177        O  0.20469179  0.85136087  0.03919964    -0.78200
O178        O  0.23581341  0.81723658  0.91959214    -0.78100
O179        O  0.18407597  0.76582863  0.08057151    -0.78200
Co180      Co  0.24119038  0.83704318  0.00008709     1.51500
Co181      Co  0.16430500  0.76048931  0.00007132     1.51700
Co182      Co  0.23527774  0.76609187  0.05519329     1.51600
Co183      Co  0.23532051  0.76606139  0.94500677     1.51500
O184        O  0.21933766  0.78210730  0.00008987    -1.40100
C185        C  0.21563152  0.84579509  0.92756805     1.11500
C186        C  0.15558108  0.78609085  0.07256252     1.11600
C187        C  0.21562897  0.84583897  0.07259834     1.11500
C188        C  0.15563660  0.78600078  0.92754260     1.11500
O189        O  0.03822561  0.16706561  0.28182661    -0.78200
O190        O  0.96579644  0.28012113  0.16790207    -0.78200
O191        O  0.04216024  0.28464178  0.22969172    -0.78200
O192        O  0.96200123  0.22915111  0.28594590    -0.78100
O193        O  0.03873067  0.27976700  0.16792233    -0.78200
O194        O  0.96529272  0.16733719  0.28167779    -0.78200
O195        O  0.96225304  0.28493637  0.22967298    -0.78200
O196        O  0.04193388  0.22885933  0.28609788    -0.78200
C197        C  0.04450198  0.19658033  0.30108564     1.11500
C198        C  0.95963564  0.29965058  0.19728107     1.11400
C199        C  0.04493752  0.29929792  0.19728030     1.11600
C200        C  0.95914123  0.19690728  0.30091701     1.11400
O201        O  0.96280627  0.14614383  0.20201336    -0.78200
O202        O  0.04107532  0.19990135  0.14748630    -0.78200
O203        O  0.08238835  0.17977766  0.23330136    -0.78200
O204        O  0.92158610  0.23184034  0.18118453    -0.78100
O205        O  0.96284494  0.20030946  0.14733692    -0.78200
O206        O  0.04100784  0.14575057  0.20222054    -0.78200
O207        O  0.92144440  0.18042955  0.23296146    -0.78100
O208        O  0.08252646  0.23106116  0.18138178    -0.78200
Co209      Co  0.00184279  0.16030969  0.23857156     1.51500
Co210      Co  0.00210135  0.23669014  0.16143330     1.51700
Co211      Co  0.05709778  0.23103927  0.23253979     1.51600
Co212      Co  0.94696899  0.23149311  0.23238162     1.51500
O213        O  0.00200655  0.21519046  0.21653709    -1.40100
C214        C  0.92940861  0.15183365  0.21285362     1.11500
C215        C  0.07448954  0.21075699  0.15295495     1.11600
C216        C  0.07438865  0.15118489  0.21322577     1.11500
C217        C  0.92949849  0.21149092  0.15274489     1.11500
O218        O  0.17087643  0.96185631  0.28181031    -0.78200
O219        O  0.28355030  0.03525677  0.16835910    -0.78200
O220        O  0.28859361  0.95879880  0.23006646    -0.78200
O221        O  0.23229667  0.03849887  0.28635807    -0.78100
O222        O  0.28390770  0.96233056  0.16829022    -0.78200
O223        O  0.17051697  0.03477990  0.28191246    -0.78200
O224        O  0.28823575  0.03870851  0.23014284    -0.78200
O225        O  0.23268904  0.95858556  0.28620109    -0.78200
C226        C  0.20041585  0.95572661  0.30110764     1.11500
C227        C  0.30298908  0.04146886  0.19777698     1.11400
C228        C  0.30337172  0.95615255  0.19770710     1.11600
C229        C  0.19997570  0.04107221  0.30125132     1.11400
O230        O  0.14942008  0.03749861  0.20225283    -0.78200
O231        O  0.20414693  0.95939558  0.14754997    -0.78200
O232        O  0.18407809  0.91797945  0.23315353    -0.78200
O233        O  0.23480728  0.07906065  0.18164143    -0.78100
O234        O  0.20373390  0.03758961  0.14770072    -0.78200
O235        O  0.14986075  0.95930699  0.20209214    -0.78200
O236        O  0.18334982  0.07891468  0.23339461    -0.78100
O237        O  0.23558880  0.91812666  0.18146755    -0.78200
Co238      Co  0.16391162  0.99836802  0.23866369     1.51500
Co239      Co  0.24049437  0.99863554  0.16173472     1.51700
Co240      Co  0.23513880  0.94351865  0.23266133     1.51600
Co241      Co  0.23462893  0.05364503  0.23280674     1.51500
O242        O  0.21885130  0.99854556  0.21677450    -1.40100
C243        C  0.15480182  0.07088428  0.21326356     1.11500
C244        C  0.21532142  0.92605332  0.15297169     1.11600
C245        C  0.15551833  0.92592445  0.21298560     1.11500
C246        C  0.21458099  0.07100122  0.15316540     1.11500
O247        O  0.20359506  0.14530074  0.03925597    -0.78200
O248        O  0.14900224  0.19965401  0.96098928    -0.78200
O249        O  0.18301136  0.23089814  0.08054780    -0.78200
O250        O  0.23463365  0.17932927  0.91964437    -0.78100
O251        O  0.14902892  0.19966419  0.03921896    -0.78200
O252        O  0.20354336  0.14526563  0.96101654    -0.78200
O253        O  0.18296048  0.23087201  0.91963521    -0.78200
O254        O  0.23473189  0.17940273  0.08055848    -0.78200
C255        C  0.21454167  0.15088963  0.07263636     1.11500
C256        C  0.15449906  0.21062132  0.92760247     1.11400
C257        C  0.15455099  0.21063503  0.07260113     1.11600
C258        C  0.21443998  0.15083095  0.92761609     1.11400
O259        O  0.28323169  0.16621699  0.96360979    -0.78200
O260        O  0.16972560  0.27942353  0.03655624    -0.78200
O261        O  0.28768249  0.22806495  0.03996272    -0.78200
O262        O  0.23150973  0.28399509  0.96017008    -0.78100
O263        O  0.16972564  0.27941469  0.96362415    -0.78200
O264        O  0.28327923  0.16626703  0.03654163    -0.78200
O265        O  0.28765065  0.22800824  0.96015915    -0.78100
O266        O  0.23150796  0.28403564  0.03995668    -0.78200
Co267      Co  0.24005384  0.15950218  0.00010586     1.51500
Co268      Co  0.16312196  0.23618989  0.00009650     1.51700
Co269      Co  0.23416146  0.23052983  0.05511386     1.51600
Co270      Co  0.23412229  0.23048254  0.94504261     1.51500
O271        O  0.21815752  0.21446696  0.00008980    -1.40100
C272        C  0.30255439  0.19569897  0.95744360     1.11500
C273        C  0.19915384  0.29884611  0.04267681     1.11600
C274        C  0.30259591  0.19575875  0.04268949     1.11500
C275        C  0.19916056  0.29882015  0.95747678     1.11500
O276        O  0.83398758  0.03573549  0.28167958    -0.78200
O277        O  0.72109724  0.96249540  0.16832616    -0.78200
O278        O  0.71617956  0.03892713  0.23008981    -0.78200
O279        O  0.77249695  0.95914118  0.28626168    -0.78100
O280        O  0.72078027  0.03542319  0.16830449    -0.78200
O281        O  0.83427401  0.96280652  0.28174514    -0.78200
O282        O  0.71649132  0.95902246  0.23011435    -0.78200
O283        O  0.77218280  0.03905844  0.28615871    -0.78200
C284        C  0.80448213  0.04189773  0.30102007     1.11500
C285        C  0.70169327  0.95629227  0.19776678     1.11400
C286        C  0.70136208  0.04161964  0.19774974     1.11600
C287        C  0.80483319  0.95653613  0.30111854     1.11400
O288        O  0.85527343  0.96009602  0.20205714    -0.78200
O289        O  0.80051777  0.03831469  0.14745298    -0.78200
O290        O  0.82073418  0.07964047  0.23306093    -0.78200
O291        O  0.76981720  0.91863986  0.18152447    -0.78100
O292        O  0.80087115  0.96009888  0.14754817    -0.78200
O293        O  0.85489479  0.03831108  0.20193458    -0.78200
O294        O  0.82133996  0.91870132  0.23321990    -0.78100
O295        O  0.76915366  0.07957852  0.18144940    -0.78200
Co296      Co  0.84085776  0.99923473  0.23850245     1.51500
Co297      Co  0.76416398  0.99908596  0.16166498     1.51700
Co298      Co  0.76965787  0.05415022  0.23262478     1.51600
Co299      Co  0.77008368  0.94402704  0.23270307     1.51500
O300        O  0.78588660  0.99912074  0.21667926    -1.40100
C301        C  0.84988431  0.92671174  0.21307519     1.11500
C302        C  0.78937278  0.07166137  0.15291718     1.11600
C303        C  0.84926073  0.07169293  0.21285037     1.11500
C304        C  0.79002368  0.92668720  0.15303189     1.11500
O305        O  0.72027387  0.16757617  0.03656712    -0.78200
O306        O  0.83376777  0.28051768  0.96361864    -0.78200
O307        O  0.77205443  0.28525418  0.04012923    -0.78200
O308        O  0.71581002  0.22936919  0.96009523    -0.78100
O309        O  0.83382460  0.28047980  0.03656686    -0.78200
O310        O  0.72026333  0.16757576  0.96361266    -0.78200
O311        O  0.77199088  0.28527406  0.96009854    -0.78200
O312        O  0.71584807  0.22937155  0.04013841    -0.78200
C313        C  0.70095463  0.19708404  0.04283838     1.11500
C314        C  0.80435611  0.30000712  0.95741463     1.11400
C315        C  0.80442536  0.29997600  0.04280338     1.11600
C316        C  0.70092803  0.19707885  0.95737734     1.11400
O317        O  0.79994630  0.14643654  0.96095780    -0.78200
O318        O  0.85453947  0.20067392  0.03915526    -0.78200
O319        O  0.76888373  0.18050956  0.08058707    -0.78200
O320        O  0.82054780  0.23201734  0.91957289    -0.78100
O321        O  0.85449593  0.20071550  0.96092229    -0.78200
O322        O  0.79996038  0.14641419  0.03918751    -0.78200
O323        O  0.76884890  0.18054818  0.91958183    -0.78100
O324        O  0.82062828  0.23193490  0.08056916    -0.78200
Co325      Co  0.76346313  0.16075188  0.00008146     1.51500
Co326      Co  0.84038645  0.23725905  0.00006591     1.51700
Co327      Co  0.76942249  0.23169722  0.05519402     1.51600
Co328      Co  0.76937076  0.23172719  0.94499902     1.51500
O329        O  0.78534420  0.21567500  0.00008540    -1.40100
C330        C  0.78901324  0.15197715  0.92756083     1.11500
C331        C  0.84911194  0.21165954  0.07255294     1.11600
C332        C  0.78903258  0.15193464  0.07258886     1.11500
C333        C  0.84904293  0.21174210  0.92754279     1.11500
O334        O  0.03934680  0.83022365  0.71843417    -0.78200
O335        O  0.96608344  0.71770344  0.83213267    -0.78200
O336        O  0.04249068  0.71258853  0.77039112    -0.78200
O337        O  0.96271888  0.76879032  0.71406212    -0.78100
O338        O  0.03901834  0.71738439  0.83216250    -0.78200
O339        O  0.96641150  0.83057165  0.71841534    -0.78200
O340        O  0.96258129  0.71293921  0.77035581    -0.78200
O341        O  0.04266200  0.76840720  0.71413139    -0.78200
C342        C  0.04550791  0.80066349  0.69917886     1.11500
C343        C  0.95986602  0.69822412  0.80274283     1.11400
C344        C  0.04517975  0.69786893  0.80277507     1.11600
C345        C  0.96012768  0.80108484  0.69912041     1.11400
O346        O  0.96377161  0.85179567  0.79804217    -0.78200
O347        O  0.04192121  0.79718140  0.85277001    -0.78200
O348        O  0.08328461  0.81709542  0.76706409    -0.78200
O349        O  0.92222953  0.76639707  0.81880901    -0.78100
O350        O  0.96369194  0.79753754  0.85269904    -0.78200
O351        O  0.04199030  0.85136996  0.79810927    -0.78200
O352        O  0.92232448  0.81780787  0.76700142    -0.78100
O353        O  0.08317895  0.76570641  0.81886150    -0.78200
Co354      Co  0.00287514  0.83724972  0.76161101     1.51500
Co355      Co  0.00268333  0.76078876  0.83867326     1.51700
Co356      Co  0.05775078  0.76604417  0.76768011     1.51600
Co357      Co  0.94761512  0.76653113  0.76763006     1.51500
O358        O  0.00272735  0.78234728  0.78359285    -1.40100
C359        C  0.93036848  0.84638866  0.78708326     1.11500
C360        C  0.07527299  0.78603648  0.84731981     1.11600
C361        C  0.07536570  0.84568423  0.78719512     1.11500
C362        C  0.93027710  0.78667253  0.84725134     1.11500
O363        O  0.85492218  0.03838399  0.79818998    -0.78200
O364        O  0.80100452  0.96015486  0.85266861    -0.78200
O365        O  0.76915838  0.07958670  0.81871272    -0.78200
O366        O  0.82143832  0.91872059  0.76700480    -0.78100
O367        O  0.80058583  0.03837204  0.85271127    -0.78200
O368        O  0.85537326  0.96015596  0.79811492    -0.78200
O369        O  0.76995554  0.91865406  0.81873814    -0.78200
O370        O  0.82069667  0.07966255  0.76706402    -0.78200
C371        C  0.84924303  0.07175587  0.78726283     1.11500
C372        C  0.79017345  0.92673293  0.84721390     1.11400
C373        C  0.78940494  0.07170489  0.84723541     1.11600
C374        C  0.84999248  0.92675917  0.78712497     1.11400
O375        O  0.83430379  0.96280586  0.71844331    -0.78200
O376        O  0.72083265  0.03540155  0.83192832    -0.78200
O377        O  0.77214619  0.03901010  0.71402189    -0.78200
O378        O  0.71655873  0.95896005  0.77016766    -0.78100
O379        O  0.72120724  0.96247325  0.83195088    -0.78200
O380        O  0.83395708  0.03573589  0.71846631    -0.78200
O381        O  0.77252594  0.95908709  0.71397329    -0.78100
O382        O  0.71617685  0.03886487  0.77014394    -0.78200
Co383      Co  0.84089053  0.99926673  0.76165903     1.51500
Co384      Co  0.76425312  0.99910334  0.83855470     1.51700
Co385      Co  0.76964415  0.05412798  0.76755334     1.51600
Co386      Co  0.77016323  0.94400655  0.76754476     1.51500
O387        O  0.78593399  0.99912210  0.78352281    -1.40100
C388        C  0.80485378  0.95649968  0.69909429     1.11500
C389        C  0.70138494  0.04156984  0.80249588     1.11600
C390        C  0.80443554  0.04187298  0.69914172     1.11500
C391        C  0.70178363  0.95624392  0.80252755     1.11500
O392        O  0.80110248  0.85219758  0.03924293    -0.78200
O393        O  0.85565475  0.79781277  0.96097466    -0.78200
O394        O  0.82164322  0.76659656  0.08054915    -0.78200
O395        O  0.77003393  0.81820490  0.91963143    -0.78100
O396        O  0.85563572  0.79780404  0.03921123    -0.78200
O397        O  0.80114671  0.85223168  0.96101412    -0.78200
O398        O  0.82167915  0.76661933  0.91961612    -0.78200
O399        O  0.76995027  0.81813425  0.08056008    -0.78200
C400        C  0.79013757  0.84664657  0.07262172     1.11500
C401        C  0.85015922  0.78684332  0.92758734     1.11400
C402        C  0.85012082  0.78683264  0.07259492     1.11600
C403        C  0.79022524  0.84670339  0.92761655     1.11400
O404        O  0.72144287  0.83133009  0.96360668    -0.78200
O405        O  0.83488982  0.71806253  0.03654753    -0.78200
O406        O  0.71695870  0.76948888  0.03998108    -0.78200
O407        O  0.77309801  0.71351697  0.96013906    -0.78100
O408        O  0.83488317  0.71807011  0.96361404    -0.78200
O409        O  0.72140182  0.83128181  0.03653984    -0.78200
O410        O  0.71698447  0.76954353  0.96013710    -0.78100
O411        O  0.77310699  0.71347814  0.03997650    -0.78200
Co412      Co  0.76462876  0.83801558  0.00010053     1.51500
Co413      Co  0.84151298  0.76128776  0.00008643     1.51700
Co414      Co  0.77048660  0.76699515  0.05512046     1.51600
Co415      Co  0.77051598  0.76704018  0.94502493     1.51500
O416        O  0.78648877  0.78303780  0.00008318    -1.40100
C417        C  0.70210194  0.80186357  0.95742404     1.11500
C418        C  0.80545728  0.69865688  0.04269587     1.11600
C419        C  0.70206749  0.80180595  0.04270607     1.11500
C420        C  0.80544312  0.69868052  0.95744353     1.11500
C421        C  0.79716086  0.89845172  0.87514961    -0.11300
C422        C  0.79716879  0.87451848  0.89922089    -0.12800
C423        C  0.90196573  0.79370179  0.87515467    -0.11300
C424        C  0.87800264  0.79374959  0.89920205    -0.12800
C425        C  0.87801854  0.89844073  0.79389800    -0.11300
C426        C  0.90204537  0.87440570  0.79387506    -0.12800
C427        C  0.79608135  0.10009760  0.87515158    -0.11300
C428        C  0.79594286  0.12410459  0.89916929    -0.12800
C429        C  0.79594555  0.12403962  0.10096349    -0.11300
C430        C  0.79606471  0.10003426  0.12498356    -0.12800
C431        C  0.79699522  0.89838211  0.12511575    -0.11300
C432        C  0.79702673  0.87444973  0.10104301    -0.12800
C433        C  0.20760404  0.12314683  0.10109679    -0.11300
C434        C  0.20761236  0.09927329  0.12522352    -0.12800
C435        C  0.12675500  0.20367877  0.10101317    -0.11300
C436        C  0.10280797  0.20370728  0.12507190    -0.12800
C437        C  0.90110977  0.20466928  0.12485326    -0.11300
C438        C  0.87705543  0.20472618  0.10087870    -0.12800
C439        C  0.87702733  0.10008840  0.20592232    -0.11300
C440        C  0.90100569  0.12407154  0.20593252    -0.12800
C441        C  0.12678447  0.09919401  0.20648352    -0.11300
C442        C  0.10273808  0.12319997  0.20647678    -0.12800
C443        C  0.20871047  0.87371996  0.10098264    -0.11300
C444        C  0.20860554  0.89770302  0.12502338    -0.12800
C445        C  0.12771602  0.79287236  0.89917961    -0.11300
C446        C  0.10367629  0.79288221  0.87519014    -0.12800
C447        C  0.90194950  0.87437498  0.20633379    -0.11300
C448        C  0.87790082  0.89838594  0.20631077    -0.12800
C449        C  0.10373237  0.87357986  0.20605433    -0.11300
C450        C  0.12774131  0.89753303  0.20607221    -0.12800
C451        C  0.87794517  0.79375200  0.10099598    -0.11300
C452        C  0.90190880  0.79372252  0.12504320    -0.12800
C453        C  0.10361235  0.79305117  0.12489285    -0.11300
C454        C  0.12764958  0.79301529  0.10090182    -0.12800
C455        C  0.90102618  0.20481826  0.87522160    -0.11300
C456        C  0.87696973  0.20485370  0.89919237    -0.12800
C457        C  0.10273119  0.20371939  0.87515057    -0.11300
C458        C  0.12667967  0.20367529  0.89920914    -0.12800
C459        C  0.90092906  0.12419814  0.79416678    -0.11300
C460        C  0.87697367  0.10019167  0.79417426    -0.12800
C461        C  0.20856130  0.89763825  0.87513355    -0.11300
C462        C  0.20868831  0.87365317  0.89916999    -0.12800
C463        C  0.20742227  0.09920122  0.87505713    -0.11300
C464        C  0.20744145  0.12307636  0.89918191    -0.12800
C465        C  0.12664649  0.09912654  0.79374465    -0.11300
C466        C  0.10262335  0.12315763  0.79375368    -0.12800
C467        C  0.10379031  0.87343917  0.79405960    -0.11300
C468        C  0.12777515  0.89741691  0.79404240    -0.12800
C469        C  0.90921537  0.56837564  0.84901301    -0.16500
C470        C  0.92109725  0.59654249  0.83409506     0.08700
C471        C  0.93539897  0.62993419  0.81778858     0.09400
C472        C  0.94724987  0.66010264  0.80752569    -0.17400
C473        C  0.81010845  0.66051252  0.94490065    -0.16500
C474        C  0.82023613  0.63026882  0.93308095     0.07500
C475        C  0.83638531  0.59677306  0.91879410     0.09400
C476        C  0.85119272  0.56851935  0.90692689    -0.17400
C477        C  0.90906712  0.42968962  0.84904860    -0.16500
C478        C  0.92097553  0.40151525  0.83413215     0.07500
C479        C  0.93532138  0.36812400  0.81783217     0.09400
C480        C  0.94716630  0.33792895  0.80758802    -0.17400
C481        C  0.80910852  0.33815216  0.94480190    -0.16500
C482        C  0.81942603  0.36830739  0.93294735     0.07500
C483        C  0.83584501  0.40166114  0.91866518     0.09400
C484        C  0.85086627  0.42979667  0.90683522    -0.17400
C485        C  0.94732335  0.66014764  0.19259106    -0.16500
C486        C  0.93547738  0.62997168  0.18233903     0.07500
C487        C  0.92116955  0.59656489  0.16606338     0.09400
C488        C  0.90927496  0.56838559  0.15117485    -0.17400
C489        C  0.85124923  0.56852140  0.09326172    -0.16500
C490        C  0.83644183  0.59676928  0.08137948     0.07500
C491        C  0.82028120  0.63025523  0.06707493     0.09400
C492        C  0.81013799  0.66049004  0.05524439    -0.17400
C493        C  0.90910984  0.42967713  0.15115221    -0.16500
C494        C  0.92100449  0.40147389  0.16602625     0.07500
C495        C  0.93532164  0.36804120  0.18227385     0.09400
C496        C  0.94714255  0.33782764  0.19249301    -0.17400
C497        C  0.85091879  0.42979132  0.09337002    -0.16500
C498        C  0.83591410  0.40164266  0.08154636     0.07500
C499        C  0.81951226  0.36827491  0.06727668     0.09400
C500        C  0.80919675  0.33811549  0.05542719    -0.17400
C501        C  0.83776841  0.49918841  0.94680250    -0.16500
C502        C  0.83041613  0.49920775  0.98011817     0.07500
C503        C  0.83042839  0.49920533  0.02010127     0.09400
C504        C  0.83779875  0.49918372  0.05341316    -0.17400
C505        C  0.09594401  0.56796291  0.15127857    -0.16500
C506        C  0.08403947  0.59617838  0.16613272     0.07500
C507        C  0.06968414  0.62962414  0.18233501     0.09400
C508        C  0.05780749  0.65983166  0.19252540    -0.17400
C509        C  0.15408253  0.56788760  0.09345304    -0.16500
C510        C  0.16902226  0.59607005  0.08162658     0.07500
C511        C  0.18532468  0.62948161  0.06733895     0.09400
C512        C  0.19556841  0.65965732  0.05546690    -0.17400
C513        C  0.09568940  0.42922125  0.15111354    -0.16500
C514        C  0.08378701  0.40101188  0.16594860     0.07500
C515        C  0.06946731  0.36758039  0.18218465     0.09400
C516        C  0.05759586  0.33741015  0.19243956    -0.17400
C517        C  0.19447729  0.33703107  0.05516476    -0.16500
C518        C  0.18440029  0.36730496  0.06694938     0.07500
C519        C  0.16835253  0.40085020  0.08123444     0.09400
C520        C  0.15363820  0.42913482  0.09314311    -0.17400
C521        C  0.94918973  0.49892742  0.16422582    -0.16500
C522        C  0.98252119  0.49885584  0.17151436     0.07500
C523        C  0.02250610  0.49877358  0.17154011     0.09400
C524        C  0.05584397  0.49870406  0.16428346    -0.17400
C525        C  0.09598487  0.56794366  0.84891366    -0.16500
C526        C  0.08406330  0.59612711  0.83401639     0.07500
C527        C  0.06967378  0.62952948  0.81775952     0.09400
C528        C  0.05776961  0.65971571  0.80754392    -0.17400
C529        C  0.19565109  0.65961999  0.94476538    -0.16500
C530        C  0.18540646  0.62944763  0.93288452     0.07500
C531        C  0.16909009  0.59605028  0.91858067     0.09400
C532        C  0.15413550  0.56787861  0.90674536    -0.17400
C533        C  0.09574054  0.42922367  0.84907871    -0.16500
C534        C  0.08384518  0.40102410  0.83422027     0.07500
C535        C  0.06952707  0.36760638  0.81796083     0.09400
C536        C  0.05764869  0.33744211  0.80769828    -0.17400
C537        C  0.15369206  0.42913196  0.90704655    -0.16500
C538        C  0.16840304  0.40084253  0.91894297     0.07500
C539        C  0.18443702  0.36728662  0.93321481     0.09400
C540        C  0.19449718  0.33700594  0.94499132    -0.17400
C541        C  0.16717069  0.49852804  0.05341570    -0.16500
C542        C  0.17453480  0.49852362  0.02010071     0.07500
C543        C  0.17454809  0.49852102  0.98011464     0.09400
C544        C  0.16720334  0.49852230  0.94679524    -0.17400
C545        C  0.05584843  0.49869513  0.83597782    -0.16500
C546        C  0.02250479  0.49876732  0.82874239     0.07500
C547        C  0.98251803  0.49885458  0.82876937     0.09400
C548        C  0.94918158  0.49892900  0.83603894    -0.17400
C549        C  0.66365727  0.94361537  0.80724700    -0.16500
C550        C  0.63348162  0.93176638  0.81749463     0.07500
C551        C  0.60008677  0.91748569  0.83381550     0.09400
C552        C  0.57192079  0.90563495  0.84876230    -0.17400
C553        C  0.66394540  0.80647727  0.94482888    -0.16500
C554        C  0.63372450  0.81661638  0.93296297     0.07500
C555        C  0.60027270  0.83282457  0.91864225     0.09400
C556        C  0.57205321  0.84769017  0.90676947    -0.17400
C557        C  0.34149042  0.94364588  0.80731493    -0.16500
C558        C  0.37167488  0.93176168  0.81755793     0.07500
C559        C  0.40505622  0.91739035  0.83386954     0.09400
C560        C  0.43322704  0.90548444  0.84880332    -0.17400
C561        C  0.43337886  0.84729145  0.90662599    -0.16500
C562        C  0.40529846  0.83216878  0.91845037     0.07500
C563        C  0.37201023  0.81566252  0.93277521     0.09400
C564        C  0.34188155  0.80535505  0.94469927    -0.17400
C565        C  0.57191140  0.90560418  0.15147369    -0.16500
C566        C  0.60004908  0.91747296  0.16645748     0.07500
C567        C  0.63340710  0.93178603  0.18281934     0.09400
C568        C  0.66356817  0.94365870  0.19307792    -0.17400
C569        C  0.57205761  0.84765359  0.09345234    -0.16500
C570        C  0.60026650  0.83277987  0.08156101     0.07500
C571        C  0.63370176  0.81655747  0.06720763     0.09400
C572        C  0.66391129  0.80641053  0.05531589    -0.17400
C573        C  0.43324046  0.90542716  0.15145447    -0.16500
C574        C  0.40508199  0.91732248  0.16641506     0.07500
C575        C  0.37171271  0.93169162  0.18274780     0.09400
C576        C  0.34153251  0.94358260  0.19298849    -0.17400
C577        C  0.43337707  0.84724246  0.09361925    -0.16500
C578        C  0.40528797  0.83212783  0.08179934     0.07500
C579        C  0.37199063  0.81563746  0.06747263     0.09400
C580        C  0.34185934  0.80534166  0.05553928    -0.17400
C581        C  0.50273351  0.83446082  0.05344694    -0.16500
C582        C  0.50275315  0.82719203  0.02010745     0.07500
C583        C  0.50275513  0.82720310  0.98011415     0.09400
C584        C  0.50273697  0.83448848  0.94677828    -0.17400
C585        C  0.66323162  0.05420520  0.80718709    -0.16500
C586        C  0.63305048  0.06614701  0.81738608     0.07500
C587        C  0.59965868  0.08055545  0.83366075     0.09400
C588        C  0.57148132  0.09246036  0.84859118    -0.17400
C589        C  0.57133647  0.15060434  0.90647187    -0.16500
C590        C  0.59941223  0.16572909  0.91830382     0.07500
C591        C  0.63269028  0.18221831  0.93266719     0.09400
C592        C  0.66280867  0.19250217  0.94463692    -0.17400
C593        C  0.34098993  0.05416666  0.80730501    -0.16500
C594        C  0.37116478  0.06602746  0.81755263     0.07500
C595        C  0.40457835  0.08031499  0.83384069     0.09400
C596        C  0.43276663  0.09217379  0.84874737    -0.17400
C597        C  0.43266943  0.15005184  0.90681499    -0.16500
C598        C  0.40443861  0.16487008  0.91871308     0.07500
C599        C  0.37096241  0.18102289  0.93303298     0.09400
C600        C  0.34072232  0.19111903  0.94487905    -0.17400
C601        C  0.50224517  0.05226551  0.83565771    -0.16500
C602        C  0.50231807  0.01892322  0.82841754     0.07500
C603        C  0.50239991  0.97893692  0.82846154     0.09400
C604        C  0.50247046  0.94560708  0.83576005    -0.17400
C605        C  0.57148161  0.09252281  0.15165877    -0.16500
C606        C  0.59965068  0.08062505  0.16660808     0.07500
C607        C  0.63303398  0.06621758  0.18289360     0.09400
C608        C  0.66321375  0.05426964  0.19308504    -0.17400
C609        C  0.66283943  0.19251392  0.05559925    -0.16500
C610        C  0.63271929  0.18224375  0.06757772     0.07500
C611        C  0.59943075  0.16577306  0.08194280     0.09400
C612        C  0.57134695  0.15065961  0.09377094    -0.17400
C613        C  0.34110327  0.05413547  0.19304555    -0.16500
C614        C  0.37126039  0.06602323  0.18278481     0.07500
C615        C  0.40463343  0.08034573  0.16645077     0.09400
C616        C  0.43278965  0.09222214  0.15150304    -0.17400
C617        C  0.43267407  0.15009998  0.09341600    -0.16500
C618        C  0.40445273  0.16492504  0.08149679     0.07500
C619        C  0.37099380  0.18108885  0.06714141     0.09400
C620        C  0.34076360  0.19119017  0.05526753    -0.17400
C621        C  0.50225876  0.05227973  0.16452593    -0.16500
C622        C  0.50232849  0.01893107  0.17174595     0.07500
C623        C  0.50240360  0.97894172  0.17170035     0.09400
C624        C  0.50247061  0.94560574  0.16441955    -0.17400
C625        C  0.50202648  0.16325311  0.94676614    -0.16500
C626        C  0.50202370  0.17050479  0.98011280     0.07500
C627        C  0.50202682  0.17051873  0.02011152     0.09400
C628        C  0.50203345  0.16328757  0.05346245    -0.17400
C629        C  0.90976272  0.84792427  0.56940918    -0.16500
C630        C  0.92150424  0.83271870  0.59750215     0.07500
C631        C  0.93570946  0.81609349  0.63080244     0.09400
C632        C  0.94753040  0.80570534  0.66095794    -0.17400
C633        C  0.85178415  0.90605754  0.56941318    -0.16500
C634        C  0.83659181  0.91781886  0.59750821     0.07500
C635        C  0.81996684  0.93204348  0.63080321     0.09400
C636        C  0.80955055  0.94388114  0.66094549    -0.17400
C637        C  0.85180335  0.90608287  0.43077560    -0.16500
C638        C  0.83660881  0.91785951  0.40268911     0.07500
C639        C  0.81997414  0.93209685  0.36940636     0.09400
C640        C  0.80954663  0.94393462  0.33926894    -0.17400
C641        C  0.90977580  0.84793708  0.43076965    -0.16500
C642        C  0.92152239  0.83272821  0.40267840     0.07500
C643        C  0.93573304  0.81609632  0.36938138     0.09400
C644        C  0.94755686  0.80570626  0.33922571    -0.17400
C645        C  0.94638883  0.19257067  0.66110332    -0.16500
C646        C  0.93434463  0.18252958  0.63093250     0.07500
C647        C  0.91985865  0.16633937  0.59756755     0.09400
C648        C  0.90792484  0.15142247  0.56942096    -0.17400
C649        C  0.80894380  0.05467980  0.66104326    -0.16500
C650        C  0.81902168  0.06677098  0.63090229     0.07500
C651        C  0.83521075  0.08132082  0.59756055     0.09400
C652        C  0.85010174  0.09330942  0.56942275    -0.17400
C653        C  0.94636318  0.19250017  0.33903659    -0.16500
C654        C  0.93433003  0.18247101  0.36921540     0.07500
C655        C  0.91986192  0.16630070  0.40260129     0.09400
C656        C  0.90793917  0.15140146  0.43076121    -0.17400
C657        C  0.85012860  0.09328671  0.43076948    -0.16500
C658        C  0.83525549  0.08130139  0.40262074     0.07500
C659        C  0.81908741  0.06676756  0.36926581     0.09400
C660        C  0.80901499  0.05469263  0.33911662    -0.17400
C661        C  0.83888139  0.94627146  0.50009836    -0.16500
C662        C  0.83134469  0.97956289  0.50010016     0.07500
C663        C  0.83085642  0.01955957  0.50010043     0.09400
C664        C  0.83765913  0.05299048  0.50009919    -0.17400
C665        C  0.19526613  0.05371161  0.66083322    -0.16500
C666        C  0.18483272  0.06557384  0.63070949     0.07500
C667        C  0.16815654  0.07984098  0.59746302     0.09400
C668        C  0.15292151  0.09163107  0.56940599    -0.17400
C669        C  0.05710636  0.19198838  0.66094122    -0.16500
C670        C  0.06893607  0.18160340  0.63078764     0.07500
C671        C  0.08316535  0.16497293  0.59750061     0.09400
C672        C  0.09492744  0.14976385  0.56941742    -0.17400
C673        C  0.05708552  0.19199950  0.33925986    -0.16500
C674        C  0.06891799  0.18161249  0.36941318     0.07500
C675        C  0.08315356  0.16497380  0.40269706     0.09400
C676        C  0.09492030  0.14975955  0.43077700    -0.17400
C677        C  0.15291193  0.09161694  0.43079838    -0.16500
C678        C  0.16815363  0.07981649  0.40275044     0.07500
C679        C  0.18484407  0.06554034  0.36951719     0.09400
C680        C  0.19529193  0.05367866  0.33939917    -0.17400
C681        C  0.05481965  0.16288308  0.50009901    -0.16500
C682        C  0.02155089  0.17051395  0.50009914     0.07500
C683        C  0.98155572  0.17101032  0.50009783     0.09400
C684        C  0.94814552  0.16411365  0.50009617    -0.17400
C685        C  0.09684378  0.84630159  0.56942780    -0.16500
C686        C  0.08490328  0.83138190  0.59757070     0.07500
C687        C  0.07039506  0.81517119  0.63092193     0.09400
C688        C  0.05831960  0.80510247  0.66107227    -0.17400
C689        C  0.15475260  0.90434257  0.56940476    -0.16500
C690        C  0.16970230  0.91632234  0.59751257     0.07500
C691        C  0.18593610  0.93086834  0.63082576     0.09400
C692        C  0.19600555  0.94295128  0.66096954    -0.17400
C693        C  0.09683009  0.84632549  0.43075823    -0.16500
C694        C  0.08489928  0.83142237  0.40259940     0.07500
C695        C  0.07040960  0.81523343  0.36922823     0.09400
C696        C  0.05834566  0.80517815  0.33906609    -0.17400
C697        C  0.15472637  0.90436928  0.43079478    -0.16500
C698        C  0.16966011  0.91634772  0.40268174     0.07500
C699        C  0.18587991  0.93088211  0.36935847     0.09400
C700        C  0.19594881  0.94295105  0.33921210    -0.17400
C701        C  0.16714354  0.94470319  0.50010536    -0.16500
C702        C  0.17392196  0.97814005  0.50010667     0.07500
C703        C  0.17339371  0.01813776  0.50010602     0.09400
C704        C  0.16582719  0.05142337  0.50010402    -0.17400
C705        C  0.94990491  0.83485937  0.50009300    -0.16500
C706        C  0.98318193  0.82726006  0.50009454     0.07500
C707        C  0.02317847  0.82678256  0.50009552     0.09400
C708        C  0.05659182  0.83366890  0.50009561    -0.17400
loop_ 
_geom_bond_atom_site_label_1 
_geom_bond_atom_site_label_2 
_geom_bond_distance 
_geom_bond_site_symmetry_2 
_ccdc_geom_bond_type 
C1            C2   1.409       .  A
C1            C6   1.413       .  A
C1          C693   1.449       .  S
C2            C3   1.409       .  A
C2          C708   1.456       .  S
C3            C4   1.413       .  A
C3          C685   1.449       .  S
C4            C5   1.409       .  A
C4          C689   1.448       .  S
C5            C6   1.409       .  A
C5          C701   1.456       .  S
C6          C697   1.448       .  S
C7            C8   1.409       .  A
C7           C12   1.414       .  A
C7          C668   1.449       .  S
C8            C9   1.409       .  A
C8          C704   1.457       .  S
C9           C10   1.414       .  A
C9          C677   1.449       .  S
C10          C11   1.409       .  A
C10         C676   1.449       .  S
C11          C12   1.409       .  A
C11         C681   1.456       .  S
C12         C672   1.449       .  S
C13          C14   1.409       .  A
C13          C18   1.413       .  A
C13         C648   1.449       .  S
C14          C15   1.409       .  A
C14         C684   1.456       .  S
C15          C16   1.413       .  A
C15         C656   1.449       .  S
C16          C17   1.409       .  A
C16         C657   1.449       .  S
C17          C18   1.409       .  A
C17         C664   1.456       .  S
C18         C652   1.449       .  S
C19          C20   1.409       .  A
C19          C24   1.414       .  A
C19         C629   1.449       .  S
C20          C21   1.409       .  A
C20         C705   1.456       .  S
C21          C22   1.414       .  A
C21         C641   1.449       .  S
C22          C23   1.409       .  A
C22         C637   1.449       .  S
C23          C24   1.409       .  A
C23         C661   1.456       .  S
C24         C633   1.449       .  S
C25          C26   1.409       .  A
C25          C30   1.414       .  A
C25         C612   1.449       .  S
C26          C27   1.409       .  A
C26         C628   1.456       .  S
C27          C28   1.413       .  A
C27         C617   1.449       .  S
C28          C29   1.409       .  A
C28         C616   1.449       .  S
C29          C30   1.409       .  A
C29         C621   1.456       .  S
C30         C605   1.449       .  S
C31          C32   1.409       .  A
C31          C36   1.414       .  A
C31         C589   1.449       .  S
C32          C33   1.409       .  A
C32         C625   1.456       .  S
C33          C34   1.413       .  A
C33         C597   1.449       .  S
C34          C35   1.409       .  A
C34         C596   1.449       .  S
C35          C36   1.409       .  A
C35         C601   1.456       .  S
C36         C588   1.449       .  S
C37          C38   1.409       .  A
C37          C42   1.413       .  A
C37         C565   1.449       .  S
C38          C39   1.409       .  A
C38         C624   1.456       .  S
C39          C40   1.414       .  A
C39         C573   1.449       .  S
C40          C41   1.409       .  A
C40         C577   1.449       .  S
C41          C42   1.409       .  A
C41         C581   1.456       .  S
C42         C569   1.449       .  S
C43          C44   1.409       .  A
C43          C48   1.413       .  A
C43         C552   1.449       .  S
C44          C45   1.409       .  A
C44         C604   1.456       .  S
C45          C46   1.414       .  A
C45         C560   1.449       .  S
C46          C47   1.409       .  A
C46         C561   1.449       .  S
C47          C48   1.409       .  A
C47         C584   1.456       .  S
C48         C556   1.449       .  S
C49          C50   1.409       .  A
C49          C54   1.414       .  A
C49         C525   1.449       .  S
C50          C51   1.409       .  A
C50         C545   1.456       .  S
C51          C52   1.413       .  A
C51         C533   1.449       .  S
C52          C53   1.409       .  A
C52         C537   1.449       .  S
C53          C54   1.409       .  A
C53         C544   1.456       .  S
C54         C532   1.450       .  S
C55          C56   1.409       .  A
C55          C60   1.413       .  A
C55         C520   1.449       .  S
C56          C57   1.409       .  A
C56         C541   1.456       .  S
C57          C58   1.414       .  A
C57         C509   1.450       .  S
C58          C59   1.409       .  A
C58         C505   1.449       .  S
C59          C60   1.409       .  A
C59         C524   1.456       .  S
C60         C513   1.450       .  S
C61          C62   1.409       .  A
C61          C66   1.413       .  A
C61         C488   1.449       .  S
C62          C63   1.409       .  A
C62         C521   1.456       .  S
C63          C64   1.413       .  A
C63         C493   1.449       .  S
C64          C65   1.409       .  A
C64         C497   1.449       .  S
C65          C66   1.409       .  A
C65         C504   1.456       .  S
C66         C489   1.449       .  S
C67          C68   1.413       .  A
C67          C72   1.409       .  A
C67         C484   1.449       .  S
C68          C69   1.409       .  A
C68         C477   1.449       .  S
C69          C70   1.409       .  A
C69         C548   1.456       .  S
C70          C71   1.413       .  A
C70         C469   1.449       .  S
C71          C72   1.409       .  A
C71         C476   1.449       .  S
C72         C501   1.456       .  S
O73          C81   1.260       .  A
O73         Co93   1.961       .  S
O74          C82   1.260       .  A
O74         Co94   1.961   1_545  S
O75          C83   1.270       .  A
O75         Co95   2.025       .  S
O76          C84   1.270       .  A
O76         Co96   2.025       .  S
O77          C83   1.260       .  A
O77         Co94   1.962       .  S
O78          C84   1.260       .  A
O78         Co93   1.962   1_545  S
O79          C82   1.270       .  A
O79         Co96   2.024       .  S
O80          C81   1.270       .  A
O80         Co95   2.024       .  S
C81         C468   1.429       .  S
C82         C463   1.430       .  S
C83         C461   1.431       .  S
C84         C465   1.431       .  S
O85          C98   1.268       .  A
O85         Co93   2.017   1_545  S
O86          C99   1.269       .  A
O86         Co94   2.017       .  S
O87         C100   1.264       .  A
O87         Co95   1.973       .  S
O88         C101   1.264       .  A
O88         Co96   1.973       .  S
O89         C101   1.269       .  A
O89         Co94   2.018   1_545  S
O90         C100   1.269       .  A
O90         Co93   2.018       .  S
O91          C98   1.264       .  A
O91         Co96   1.973       .  S
O92          C99   1.264       .  A
O92         Co95   1.973       .  S
Co93         O97   2.095       .  S
Co94         O97   2.095       .  S
Co95         O97   2.109       .  S
Co96         O97   2.109   1_545  S
C98         C665   1.433       .  S
C99         C557   1.433       .  S
C100        C692   1.433       .  S
C101        C593   1.433       .  S
O102        C110   1.260       .  A
O102       Co122   1.962       .  S
O103        C111   1.260       .  A
O103       Co123   1.962   1_655  S
O104        C112   1.270       .  A
O104       Co124   2.024       .  S
O105        C113   1.270       .  A
O105       Co125   2.024       .  S
O106        C112   1.260       .  A
O106       Co123   1.961       .  S
O107        C113   1.260       .  A
O107       Co122   1.961   1_655  S
O108        C111   1.270       .  A
O108       Co125   2.025       .  S
O109        C110   1.270       .  A
O109       Co124   2.025       .  S
C110        C466   1.431       .  S
C111        C455   1.431       .  S
C112        C457   1.430       .  S
C113        C459   1.429       .  S
O114        C127   1.269       .  A
O114       Co122   2.018   1_655  S
O115        C128   1.269       .  A
O115       Co123   2.018       .  S
O116        C129   1.264       .  A
O116       Co124   1.974       .  S
O117        C130   1.264       .  A
O117       Co125   1.972       .  S
O118        C130   1.269       .  A
O118       Co123   2.017   1_655  S
O119        C129   1.269       .  A
O119       Co122   2.017       .  S
O120        C127   1.264       .  A
O120       Co125   1.973       .  S
O121        C128   1.264       .  A
O121       Co124   1.974       .  S
Co122       O126   2.095       .  S
Co123       O126   2.096       .  S
Co124       O126   2.109       .  S
Co125       O126   2.109   1_655  S
C127        C645   1.433       .  S
C128        C536   1.434       .  S
C129        C669   1.433       .  S
C130        C480   1.433       .  S
O131        C139   1.260       .  A
O131       Co151   1.961       .  S
O132        C140   1.260       .  A
O132       Co152   1.961   1_655  S
O133        C141   1.270       .  A
O133       Co153   2.025       .  S
O134        C142   1.270       .  A
O134       Co154   2.025       .  S
O135        C141   1.260       .  A
O135       Co152   1.962       .  S
O136        C142   1.260       .  A
O136       Co151   1.962   1_655  S
O137        C140   1.270       .  A
O137       Co154   2.024       .  S
O138        C139   1.270       .  A
O138       Co153   2.023       .  S
C139        C449   1.429       .  S
C140        C452   1.430       .  S
C141        C453   1.431       .  S
C142        C447   1.431       .  S
O143        C156   1.268       .  A
O143       Co151   2.017   1_655  S
O144        C157   1.269       .  A
O144       Co152   2.018       .  S
O145        C158   1.264       .  A
O145       Co153   1.973       .  S
O146        C159   1.264       .  A
O146       Co154   1.973       .  S
O147        C159   1.269       .  A
O147       Co152   2.018   1_655  S
O148        C158   1.269       .  A
O148       Co151   2.018       .  S
O149        C156   1.264       .  A
O149       Co154   1.974       .  S
O150        C157   1.264       .  A
O150       Co153   1.973       .  S
Co151       O155   2.095       .  S
Co152       O155   2.096       .  S
Co153       O155   2.109       .  S
Co154       O155   2.109   1_655  S
C156        C644   1.433       .  S
C157        C508   1.433       .  S
C158        C696   1.433       .  S
C159        C485   1.433       .  S
O160        C168   1.269       .  A
O160       Co180   2.017       .  S
O161        C169   1.269       .  A
O161       Co181   2.018   1_556  S
O162        C170   1.264       .  A
O162       Co182   1.974       .  S
O163        C171   1.264       .  A
O163       Co183   1.974       .  S
O164        C170   1.269       .  A
O164       Co181   2.018       .  S
O165        C171   1.269       .  A
O165       Co180   2.017   1_556  S
O166        C169   1.264       .  A
O166       Co183   1.974       .  S
O167        C168   1.264       .  A
O167       Co182   1.974       .  S
C168        C580   1.434       .  S
C169        C529   1.434       .  S
C170        C512   1.434       .  S
C171        C564   1.433       .  S
O172        C185   1.260       .  A
O172       Co180   1.962   1_556  S
O173        C186   1.260       .  A
O173       Co181   1.962       .  S
O174        C187   1.270       .  A
O174       Co182   2.025       .  S
O175        C188   1.270       .  A
O175       Co183   2.025       .  S
O176        C188   1.260       .  A
O176       Co181   1.962   1_556  S
O177        C187   1.260       .  A
O177       Co180   1.962       .  S
O178        C185   1.270       .  A
O178       Co183   2.025       .  S
O179        C186   1.270       .  A
O179       Co182   2.025       .  S
Co180       O184   2.096       .  S
Co181       O184   2.096       .  S
Co182       O184   2.110       .  S
Co183       O184   2.110   1_556  S
C185        C462   1.431       .  S
C186        C454   1.431       .  S
C187        C443   1.431       .  S
C188        C445   1.431       .  S
O189        C197   1.269       .  A
O189       Co209   2.017       .  S
O190        C198   1.269       .  A
O190       Co210   2.018   1_655  S
O191        C199   1.264       .  A
O191       Co211   1.974       .  S
O192        C200   1.264       .  A
O192       Co212   1.973       .  S
O193        C199   1.269       .  A
O193       Co210   2.018       .  S
O194        C200   1.269       .  A
O194       Co209   2.018   1_655  S
O195        C198   1.264       .  A
O195       Co212   1.972       .  S
O196        C197   1.264       .  A
O196       Co211   1.974       .  S
C197        C673   1.433       .  S
C198        C496   1.433       .  S
C199        C516   1.434       .  S
C200        C653   1.433       .  S
O201        C214   1.260       .  A
O201       Co209   1.961   1_655  S
O202        C215   1.260       .  A
O202       Co210   1.961       .  S
O203        C216   1.270       .  A
O203       Co211   2.025       .  S
O204        C217   1.270       .  A
O204       Co212   2.025       .  S
O205        C217   1.260       .  A
O205       Co210   1.962   1_655  S
O206        C216   1.260       .  A
O206       Co209   1.962       .  S
O207        C214   1.270       .  A
O207       Co212   2.024       .  S
O208        C215   1.270       .  A
O208       Co211   2.024       .  S
Co209       O213   2.095       .  S
Co210       O213   2.096       .  S
Co211       O213   2.109       .  S
Co212       O213   2.109   1_655  S
C214        C440   1.429       .  S
C215        C436   1.430       .  S
C216        C442   1.431       .  S
C217        C437   1.431       .  S
O218        C226   1.269       .  A
O218       Co238   2.018       .  S
O219        C227   1.269       .  A
O219       Co239   2.018   1_545  S
O220        C228   1.264       .  A
O220       Co240   1.973       .  S
O221        C229   1.264       .  A
O221       Co241   1.973       .  S
O222        C228   1.269       .  A
O222       Co239   2.017       .  S
O223        C229   1.268       .  A
O223       Co238   2.017   1_545  S
O224        C227   1.264       .  A
O224       Co241   1.973       .  S
O225        C226   1.264       .  A
O225       Co240   1.972       .  S
C226        C700   1.433       .  S
C227        C613   1.433       .  S
C228        C576   1.433       .  S
C229        C680   1.433       .  S
O230        C243   1.260       .  A
O230       Co238   1.962   1_545  S
O231        C244   1.260       .  A
O231       Co239   1.962       .  S
O232        C245   1.270       .  A
O232       Co240   2.024       .  S
O233        C246   1.270       .  A
O233       Co241   2.024       .  S
O234        C246   1.260       .  A
O234       Co239   1.961   1_545  S
O235        C245   1.260       .  A
O235       Co238   1.961       .  S
O236        C243   1.270       .  A
O236       Co241   2.025       .  S
O237        C244   1.270       .  A
O237       Co240   2.025       .  S
Co238       O242   2.095       .  S
Co239       O242   2.095       .  S
Co240       O242   2.109       .  S
Co241       O242   2.109   1_545  S
C243        C441   1.431       .  S
C244        C444   1.431       .  S
C245        C450   1.429       .  S
C246        C434   1.430       .  S
O247        C255   1.260       .  A
O247       Co267   1.961       .  S
O248        C256   1.260       .  A
O248       Co268   1.961   1_556  S
O249        C257   1.270       .  A
O249       Co269   2.024       .  S
O250        C258   1.270       .  A
O250       Co270   2.024       .  S
O251        C257   1.260       .  A
O251       Co268   1.961       .  S
O252        C258   1.260       .  A
O252       Co267   1.961   1_556  S
O253        C256   1.270       .  A
O253       Co270   2.024       .  S
O254        C255   1.270       .  A
O254       Co269   2.024       .  S
C255        C433   1.430       .  S
C256        C458   1.430       .  S
C257        C435   1.430       .  S
C258        C464   1.430       .  S
O259        C272   1.269       .  A
O259       Co267   2.017   1_556  S
O260        C273   1.269       .  A
O260       Co268   2.018       .  S
O261        C274   1.264       .  A
O261       Co269   1.973       .  S
O262        C275   1.264       .  A
O262       Co270   1.972       .  S
O263        C275   1.269       .  A
O263       Co268   2.018   1_556  S
O264        C274   1.269       .  A
O264       Co267   2.017       .  S
O265        C272   1.264       .  A
O265       Co270   1.973       .  S
O266        C273   1.264       .  A
O266       Co269   1.973       .  S
Co267       O271   2.096       .  S
Co268       O271   2.096       .  S
Co269       O271   2.109       .  S
Co270       O271   2.109   1_556  S
C272        C600   1.433       .  S
C273        C517   1.433       .  S
C274        C620   1.433       .  S
C275        C540   1.433       .  S
O276        C284   1.269       .  A
O276       Co296   2.018   1_545  S
O277        C285   1.269       .  A
O277       Co297   2.017       .  S
O278        C286   1.264       .  A
O278       Co298   1.973       .  S
O279        C287   1.264       .  A
O279       Co299   1.974       .  S
O280        C286   1.269       .  A
O280       Co297   2.018   1_545  S
O281        C287   1.269       .  A
O281       Co296   2.017       .  S
O282        C285   1.264       .  A
O282       Co299   1.973       .  S
O283        C284   1.264       .  A
O283       Co298   1.973       .  S
C284        C660   1.433       .  S
C285        C568   1.433       .  S
C286        C608   1.433       .  S
C287        C640   1.433       .  S
O288        C301   1.260       .  A
O288       Co296   1.962       .  S
O289        C302   1.260       .  A
O289       Co297   1.962   1_545  S
O290        C303   1.270       .  A
O290       Co298   2.024       .  S
O291        C304   1.270       .  A
O291       Co299   2.024       .  S
O292        C304   1.260       .  A
O292       Co297   1.961       .  S
O293        C303   1.260       .  A
O293       Co296   1.961   1_545  S
O294        C301   1.270       .  A
O294       Co299   2.025       .  S
O295        C302   1.270       .  A
O295       Co298   2.025       .  S
Co296       O300   2.096       .  S
Co297       O300   2.096       .  S
Co298       O300   2.109   1_545  S
Co299       O300   2.109       .  S
C301        C448   1.431       .  S
C302        C430   1.431       .  S
C303        C439   1.429       .  S
C304        C431   1.430       .  S
O305        C313   1.269       .  A
O305       Co325   2.017       .  S
O306        C314   1.269       .  A
O306       Co326   2.018   1_556  S
O307        C315   1.264       .  A
O307       Co327   1.974       .  S
O308        C316   1.264       .  A
O308       Co328   1.973       .  S
O309        C315   1.269       .  A
O309       Co326   2.018       .  S
O310        C316   1.269       .  A
O310       Co325   2.017   1_556  S
O311        C314   1.264       .  A
O311       Co328   1.974       .  S
O312        C313   1.264       .  A
O312       Co327   1.974       .  S
C313        C609   1.433       .  S
C314        C481   1.434       .  S
C315        C500   1.434       .  S
C316        C592   1.433       .  S
O317        C330   1.260       .  A
O317       Co325   1.962   1_556  S
O318        C331   1.260       .  A
O318       Co326   1.962       .  S
O319        C332   1.270       .  A
O319       Co327   2.025       .  S
O320        C333   1.270       .  A
O320       Co328   2.025       .  S
O321        C333   1.260       .  A
O321       Co326   1.962   1_556  S
O322        C332   1.260       .  A
O322       Co325   1.962       .  S
O323        C330   1.270       .  A
O323       Co328   2.025       .  S
O324        C331   1.270       .  A
O324       Co327   2.025       .  S
Co325       O329   2.096       .  S
Co326       O329   2.096       .  S
Co327       O329   2.110       .  S
Co328       O329   2.110   1_556  S
C330        C428   1.431       .  S
C331        C438   1.431       .  S
C332        C429   1.431       .  S
C333        C456   1.431       .  S
O334        C342   1.269       .  A
O334       Co354   2.018       .  S
O335        C343   1.269       .  A
O335       Co355   2.018   1_655  S
O336        C344   1.264       .  A
O336       Co356   1.973       .  S
O337        C345   1.264       .  A
O337       Co357   1.973       .  S
O338        C344   1.269       .  A
O338       Co355   2.018       .  S
O339        C345   1.268       .  A
O339       Co354   2.017   1_655  S
O340        C343   1.264       .  A
O340       Co357   1.973       .  S
O341        C342   1.264       .  A
O341       Co356   1.973       .  S
C342        C688   1.433       .  S
C343        C472   1.433       .  S
C344        C528   1.433       .  S
C345        C632   1.433       .  S
O346        C359   1.260       .  A
O346       Co354   1.962   1_655  S
O347        C360   1.260       .  A
O347       Co355   1.962       .  S
O348        C361   1.270       .  A
O348       Co356   2.024       .  S
O349        C362   1.270       .  A
O349       Co357   2.024       .  S
O350        C362   1.260       .  A
O350       Co355   1.961   1_655  S
O351        C361   1.260       .  A
O351       Co354   1.961       .  S
O352        C359   1.270       .  A
O352       Co357   2.025       .  S
O353        C360   1.270       .  A
O353       Co356   2.025       .  S
Co354       O358   2.095       .  S
Co355       O358   2.096       .  S
Co356       O358   2.109       .  S
Co357       O358   2.109   1_655  S
C359        C426   1.431       .  S
C360        C446   1.431       .  S
C361        C467   1.429       .  S
C362        C423   1.430       .  S
O363        C371   1.260       .  A
O363       Co383   1.961   1_545  S
O364        C372   1.260       .  A
O364       Co384   1.961       .  S
O365        C373   1.270       .  A
O365       Co385   2.025       .  S
O366        C374   1.270       .  A
O366       Co386   2.025       .  S
O367        C373   1.260       .  A
O367       Co384   1.962   1_545  S
O368        C374   1.260       .  A
O368       Co383   1.962       .  S
O369        C372   1.270       .  A
O369       Co386   2.024       .  S
O370        C371   1.270       .  A
O370       Co385   2.023       .  S
C371        C460   1.429       .  S
C372        C421   1.430       .  S
C373        C427   1.431       .  S
C374        C425   1.431       .  S
O375        C388   1.269       .  A
O375       Co383   2.017       .  S
O376        C389   1.269       .  A
O376       Co384   2.018   1_545  S
O377        C390   1.264       .  A
O377       Co385   1.973       .  S
O378        C391   1.264       .  A
O378       Co386   1.973       .  S
O379        C391   1.269       .  A
O379       Co384   2.017       .  S
O380        C390   1.269       .  A
O380       Co383   2.018   1_545  S
O381        C388   1.264       .  A
O381       Co386   1.974       .  S
O382        C389   1.264       .  A
O382       Co385   1.973       .  S
Co383       O387   2.096       .  S
Co384       O387   2.096       .  S
Co385       O387   2.109   1_545  S
Co386       O387   2.109       .  S
C388        C636   1.433       .  S
C389        C585   1.433       .  S
C390        C649   1.433       .  S
C391        C549   1.433       .  S
O392        C400   1.260       .  A
O392       Co412   1.961       .  S
O393        C401   1.260       .  A
O393       Co413   1.962   1_556  S
O394        C402   1.270       .  A
O394       Co414   2.024       .  S
O395        C403   1.270       .  A
O395       Co415   2.024       .  S
O396        C402   1.260       .  A
O396       Co413   1.961       .  S
O397        C403   1.260       .  A
O397       Co412   1.961   1_556  S
O398        C401   1.270       .  A
O398       Co415   2.024       .  S
O399        C400   1.270       .  A
O399       Co414   2.024       .  S
C400        C432   1.430       .  S
C401        C424   1.430       .  S
C402        C451   1.430       .  S
C403        C422   1.430       .  S
O404        C417   1.269       .  A
O404       Co412   2.017   1_556  S
O405        C418   1.269       .  A
O405       Co413   2.018       .  S
O406        C419   1.264       .  A
O406       Co414   1.973       .  S
O407        C420   1.264       .  A
O407       Co415   1.973       .  S
O408        C420   1.269       .  A
O408       Co413   2.018   1_556  S
O409        C419   1.269       .  A
O409       Co412   2.017       .  S
O410        C417   1.264       .  A
O410       Co415   1.973       .  S
O411        C418   1.264       .  A
O411       Co414   1.973       .  S
Co412       O416   2.095       .  S
Co413       O416   2.096       .  S
Co414       O416   2.109       .  S
Co415       O416   2.109   1_556  S
C417        C553   1.433       .  S
C418        C492   1.433       .  S
C419        C572   1.433       .  S
C420        C473   1.433       .  S
C421        C422   1.203       .  T
C423        C424   1.203       .  T
C425        C426   1.203       .  T
C427        C428   1.203       .  T
C429        C430   1.203       .  T
C431        C432   1.203       .  T
C433        C434   1.203       .  T
C435        C436   1.203       .  T
C437        C438   1.203       .  T
C439        C440   1.202       .  T
C441        C442   1.203       .  T
C443        C444   1.203       .  T
C445        C446   1.203       .  T
C447        C448   1.203       .  T
C449        C450   1.202       .  T
C451        C452   1.203       .  T
C453        C454   1.203       .  T
C455        C456   1.203       .  T
C457        C458   1.203       .  T
C459        C460   1.202       .  T
C461        C462   1.203       .  T
C463        C464   1.203       .  T
C465        C466   1.203       .  T
C467        C468   1.202       .  T
C469        C470   1.206       .  T
C470        C471   1.411       .  S
C471        C472   1.205       .  T
C473        C474   1.205       .  T
C474        C475   1.411       .  S
C475        C476   1.205       .  T
C477        C478   1.205       .  T
C478        C479   1.411       .  S
C479        C480   1.205       .  T
C481        C482   1.205       .  T
C482        C483   1.412       .  S
C483        C484   1.206       .  T
C485        C486   1.205       .  T
C486        C487   1.411       .  S
C487        C488   1.206       .  T
C489        C490   1.205       .  T
C490        C491   1.411       .  S
C491        C492   1.205       .  T
C493        C494   1.205       .  T
C494        C495   1.411       .  S
C495        C496   1.205       .  T
C497        C498   1.206       .  T
C498        C499   1.412       .  S
C499        C500   1.205       .  T
C501        C502   1.209       .  T
C502        C503   1.417   1_556  S
C503        C504   1.209       .  T
C505        C506   1.206       .  T
C506        C507   1.411       .  S
C507        C508   1.205       .  T
C509        C510   1.206       .  T
C510        C511   1.412       .  S
C511        C512   1.205       .  T
C513        C514   1.206       .  T
C514        C515   1.412       .  S
C515        C516   1.205       .  T
C517        C518   1.205       .  T
C518        C519   1.411       .  S
C519        C520   1.205       .  T
C521        C522   1.209       .  T
C522        C523   1.417   1_655  S
C523        C524   1.209       .  T
C525        C526   1.205       .  T
C526        C527   1.411       .  S
C527        C528   1.205       .  T
C529        C530   1.205       .  T
C530        C531   1.412       .  S
C531        C532   1.206       .  T
C533        C534   1.206       .  T
C534        C535   1.412       .  S
C535        C536   1.205       .  T
C537        C538   1.205       .  T
C538        C539   1.411       .  S
C539        C540   1.205       .  T
C541        C542   1.209       .  T
C542        C543   1.417   1_554  S
C543        C544   1.209       .  T
C545        C546   1.209       .  T
C546        C547   1.417   1_455  S
C547        C548   1.209       .  T
C549        C550   1.205       .  T
C550        C551   1.411       .  S
C551        C552   1.206       .  T
C553        C554   1.205       .  T
C554        C555   1.411       .  S
C555        C556   1.205       .  T
C557        C558   1.205       .  T
C558        C559   1.411       .  S
C559        C560   1.205       .  T
C561        C562   1.206       .  T
C562        C563   1.411       .  S
C563        C564   1.205       .  T
C565        C566   1.206       .  T
C566        C567   1.411       .  S
C567        C568   1.205       .  T
C569        C570   1.205       .  T
C570        C571   1.411       .  S
C571        C572   1.205       .  T
C573        C574   1.205       .  T
C574        C575   1.411       .  S
C575        C576   1.205       .  T
C577        C578   1.206       .  T
C578        C579   1.412       .  S
C579        C580   1.205       .  T
C581        C582   1.209       .  T
C582        C583   1.417   1_554  S
C583        C584   1.209       .  T
C585        C586   1.205       .  T
C586        C587   1.411       .  S
C587        C588   1.206       .  T
C589        C590   1.206       .  T
C590        C591   1.411       .  S
C591        C592   1.205       .  T
C593        C594   1.205       .  T
C594        C595   1.411       .  S
C595        C596   1.206       .  T
C597        C598   1.205       .  T
C598        C599   1.411       .  S
C599        C600   1.205       .  T
C601        C602   1.209       .  T
C602        C603   1.417   1_545  S
C603        C604   1.209       .  T
C605        C606   1.206       .  T
C606        C607   1.411       .  S
C607        C608   1.205       .  T
C609        C610   1.205       .  T
C610        C611   1.411       .  S
C611        C612   1.206       .  T
C613        C614   1.205       .  T
C614        C615   1.411       .  S
C615        C616   1.206       .  T
C617        C618   1.205       .  T
C618        C619   1.411       .  S
C619        C620   1.205       .  T
C621        C622   1.209       .  T
C622        C623   1.417   1_545  S
C623        C624   1.209       .  T
C625        C626   1.209       .  T
C626        C627   1.417   1_556  S
C627        C628   1.209       .  T
C629        C630   1.206       .  T
C630        C631   1.411       .  S
C631        C632   1.205       .  T
C633        C634   1.206       .  T
C634        C635   1.411       .  S
C635        C636   1.205       .  T
C637        C638   1.206       .  T
C638        C639   1.411       .  S
C639        C640   1.205       .  T
C641        C642   1.206       .  T
C642        C643   1.411       .  S
C643        C644   1.205       .  T
C645        C646   1.205       .  T
C646        C647   1.411       .  S
C647        C648   1.205       .  T
C649        C650   1.205       .  T
C650        C651   1.411       .  S
C651        C652   1.205       .  T
C653        C654   1.205       .  T
C654        C655   1.411       .  S
C655        C656   1.205       .  T
C657        C658   1.205       .  T
C658        C659   1.411       .  S
C659        C660   1.205       .  T
C661        C662   1.209       .  T
C662        C663   1.417   1_565  S
C663        C664   1.209       .  T
C665        C666   1.205       .  T
C666        C667   1.411       .  S
C667        C668   1.206       .  T
C669        C670   1.205       .  T
C670        C671   1.411       .  S
C671        C672   1.206       .  T
C673        C674   1.205       .  T
C674        C675   1.411       .  S
C675        C676   1.206       .  T
C677        C678   1.206       .  T
C678        C679   1.411       .  S
C679        C680   1.205       .  T
C681        C682   1.209       .  T
C682        C683   1.417   1_455  S
C683        C684   1.209       .  T
C685        C686   1.205       .  T
C686        C687   1.411       .  S
C687        C688   1.205       .  T
C689        C690   1.205       .  T
C690        C691   1.411       .  S
C691        C692   1.205       .  T
C693        C694   1.206       .  T
C694        C695   1.411       .  S
C695        C696   1.205       .  T
C697        C698   1.205       .  T
C698        C699   1.411       .  S
C699        C700   1.205       .  T
C701        C702   1.209       .  T
C702        C703   1.417   1_565  S
C703        C704   1.209       .  T
C705        C706   1.209       .  T
C706        C707   1.417   1_655  S
C707        C708   1.209       .  T
