geometry optimzed in LAMMPS
_audit_creation_date              2020-11-30 
_audit_creation_method            'lammps2cif' 
_symmetry_space_group_name_H-M    'P1' 
_symmetry_Int_Tables_number       1 
_symmetry_cell_setting            triclinic 
loop_ 
_symmetry_equiv_pos_as_xyz 
  x,y,z 
_cell_length_a                    43.43688676232744 
_cell_length_b                    41.96261376621957 
_cell_length_c                    34.9756511669787 
_cell_angle_alpha                 90.41099113238731 
_cell_angle_beta                  95.81417843824121 
_cell_angle_gamma                 89.92244135530463 
loop_ 
_atom_site_label 
_atom_site_type_symbol 
_atom_site_fract_x 
_atom_site_fract_y 
_atom_site_fract_z 
_atom_site_charge 
N1          N  0.20849029  0.71070070  0.65638579    -0.27250
N2          N  0.23228331  0.73032633  0.66261488    -0.35110
C3          C  0.22344093  0.75960394  0.65089132     0.01090
C4          C  0.19263528  0.75850619  0.63641547     0.07120
C5          C  0.18383912  0.72706792  0.64038832    -0.05980
H6          H  0.23819260  0.78042306  0.65365279     0.07780
H7          H  0.16096458  0.71705120  0.63414468     0.08980
Cu8        Cu  0.27469410  0.71839083  0.69125377     0.44170
Cu9        Cu  0.20985079  0.66348336  0.67362779     0.41990
Cu10       Cu  0.28327337  0.63926566  0.72518294     0.43880
N11         N  0.31104881  0.70441042  0.73029009    -0.34630
N12         N  0.31427781  0.67493513  0.74304533    -0.28890
C13         C  0.33575604  0.67449473  0.77358413    -0.04990
C14         C  0.34646776  0.70521924  0.78033020     0.07230
C15         C  0.33039080  0.72354622  0.75228504     0.01020
H16         H  0.34068046  0.65410835  0.79196970     0.08670
H17         H  0.33044874  0.74927377  0.75046266     0.07750
N18         N  0.24462399  0.61046848  0.71650750    -0.36080
N19         N  0.21760108  0.61923654  0.69888613    -0.28260
C20         C  0.19620569  0.59727744  0.70546103    -0.03500
C21         C  0.21054589  0.57359332  0.72821337     0.05110
C22         C  0.24117665  0.58282933  0.73454741     0.03200
H23         H  0.17161623  0.59993393  0.69749472     0.08310
H24         H  0.25900295  0.57188469  0.75402136     0.07140
C25         C  0.41446005  0.75746210  0.91646312     0.03170
C26         C  0.40417281  0.75652170  0.95338533    -0.12980
C27         C  0.41832452  0.77558102  0.98357427     0.00670
C28         C  0.44429820  0.79397959  0.97635690    -0.11500
C29         C  0.45255303  0.79744067  0.93904654     0.03160
C30         C  0.43819270  0.77857338  0.90944880    -0.10930
H31         H  0.38396104  0.74244881  0.95754483     0.08760
H32         H  0.45637385  0.80850987  0.99871477     0.06290
H33         H  0.44359957  0.78244258  0.88024702     0.06130
C34         C  0.15797405  0.48077046  0.82395101     0.03170
C35         C  0.14665029  0.48961350  0.85863844    -0.12980
C36         C  0.14432120  0.46717108  0.88754996     0.00670
C37         C  0.15102371  0.43502769  0.88062393    -0.11500
C38         C  0.16031037  0.42554082  0.84493997     0.03160
C39         C  0.16365339  0.44848981  0.81665631    -0.10930
H40         H  0.14275318  0.51458678  0.86473879     0.08760
H41         H  0.15092875  0.41788326  0.90364083     0.06290
H42         H  0.17348175  0.44158307  0.79053749     0.06130
C43         C  0.12141062  0.50677788  0.10346187     0.03170
C44         C  0.11811736  0.50428400  0.06294337    -0.12980
C45         C  0.13902734  0.51870862  0.04058877     0.00670
C46         C  0.16022178  0.54086912  0.05795260    -0.11500
C47         C  0.16232351  0.54634615  0.09775513     0.03160
C48         C  0.14437009  0.52777834  0.12059341    -0.10930
H49         H  0.10019388  0.48963120  0.04824000     0.08760
H50         H  0.17534155  0.55362519  0.04055735     0.06290
H51         H  0.14899068  0.52974263  0.15142829     0.06130
C52         C  0.28507987  0.68644453  0.14279888     0.03170
C53         C  0.26676019  0.66000517  0.13061306    -0.12980
C54         C  0.24946792  0.64408841  0.15666475     0.00670
C55         C  0.25074460  0.65510636  0.19489986    -0.11500
C56         C  0.26900916  0.68154860  0.20705115     0.03160
C57         C  0.28600226  0.69710051  0.18092869    -0.10930
H58         H  0.26546731  0.65227036  0.10086748     0.08760
H59         H  0.23720395  0.64340012  0.21507176     0.06290
H60         H  0.29987038  0.71773451  0.19024153     0.06130
N61         N  0.20357796  0.48086132  0.58831302    -0.27250
N62         N  0.17837725  0.46333684  0.58121742    -0.35110
C63         C  0.18414379  0.43371373  0.59394794     0.01090
C64         C  0.21436153  0.43224634  0.61063901     0.07120
C65         C  0.22616809  0.46260271  0.60620742    -0.05980
H66         H  0.16749572  0.41452353  0.59041560     0.07780
H67         H  0.24931874  0.47085378  0.61552847     0.08980
Cu68       Cu  0.13703581  0.47859928  0.55321590     0.44170
Cu69       Cu  0.20520562  0.52819623  0.57114237     0.41990
Cu70       Cu  0.13188653  0.55651699  0.51850374     0.43880
N71         N  0.09975089  0.49401312  0.51700069    -0.34630
N72         N  0.09763297  0.52332289  0.50362741    -0.28890
C73         C  0.07505619  0.52442032  0.47432560    -0.04990
C74         C  0.06237671  0.49426502  0.46918898     0.07230
C75         C  0.07868543  0.47562776  0.49670379     0.01020
H76         H  0.07093850  0.54444108  0.45515882     0.08670
H77         H  0.07791165  0.44991843  0.49859764     0.07750
N78         N  0.17250337  0.58237353  0.52670442    -0.36080
N79         N  0.19893983  0.57249638  0.54493312    -0.28260
C80         C  0.22104114  0.59417698  0.54014517    -0.03500
C81         C  0.20791033  0.61862384  0.51742391     0.05110
C82         C  0.17710219  0.61035207  0.50993329     0.03200
H83         H  0.24491936  0.59166789  0.55168139     0.08310
H84         H  0.15963636  0.62276770  0.49140732     0.07140
C85         C  0.49858433  0.43537888  0.33460055     0.03170
C86         C  0.50937991  0.43413951  0.29799132    -0.12980
C87         C  0.49686343  0.41214048  0.27011996     0.00670
C88         C  0.47170324  0.39317319  0.27865887    -0.11500
C89         C  0.46240148  0.39251364  0.31578922     0.03160
C90         C  0.47483697  0.41477727  0.34304921    -0.10930
H91         H  0.52914590  0.44848595  0.29253876     0.08760
H92         H  0.46126916  0.37633234  0.25766026     0.06290
H93         H  0.46805916  0.41401057  0.37202007     0.06130
C94         C  0.25199895  0.71974959  0.42641434     0.03170
C95         C  0.25791533  0.70959555  0.38951204    -0.12980
C96         C  0.26417821  0.73158396  0.36121527     0.00670
C97         C  0.26512305  0.76420287  0.37068247    -0.11500
C98         C  0.25793006  0.77488035  0.40689807     0.03160
C99         C  0.25228466  0.75248637  0.43497363    -0.10930
H100        H  0.25594624  0.68449320  0.38219490     0.08760
H101        H  0.26978985  0.78160163  0.34929955     0.06290
H102        H  0.24640175  0.76067407  0.46276639     0.06130
C103        C  0.39290658  0.81685590  0.07253387     0.03170
C104        C  0.40702970  0.81027191  0.03924698    -0.12980
C105        C  0.40334583  0.78071933  0.02000933     0.00670
C106        C  0.38360769  0.75795144  0.03440392    -0.11500
C107        C  0.36791978  0.76494306  0.06687474     0.03160
C108        C  0.37304822  0.79434784  0.08601547    -0.10930
H109        H  0.42061120  0.82905830  0.02831439     0.08760
H110        H  0.37980289  0.73512001  0.02018739     0.06290
H111        H  0.36131096  0.79980221  0.11116511     0.06130
C112        C  0.03078417  0.36317484  0.19304926     0.03170
C113        C  0.01403426  0.37232572  0.22316947    -0.12980
C114        C  0.01371790  0.40413736  0.23605342     0.00670
C115        C  0.03044354  0.42710673  0.21720172    -0.11500
C116        C  0.04868934  0.41798583  0.18756815     0.03160
C117        C  0.04994109  0.38536022  0.17779025    -0.10930
H118        H  0.50080581  0.35422580  0.23598697     0.08760
H119        H  0.02873063  0.45192802  0.22522088     0.06290
H120        H  0.06498423  0.37680111  0.15719442     0.06130
N121        N  0.45953514  0.98116581  0.15783716    -0.27250
N122        N  0.48411620  0.96250651  0.16320621    -0.35110
C123        C  0.47655292  0.93318436  0.14987641     0.01090
C124        C  0.44580696  0.93333900  0.13510464     0.07120
C125        C  0.43561826  0.96411559  0.14092364    -0.05980
H126        H  0.99205784  0.91292683  0.15190564     0.07780
H127        H  0.41232134  0.97313674  0.13465175     0.08980
Cu128      Cu  0.02577301  0.97589635  0.19285804     0.44170
Cu129      Cu  0.45919321  0.02802307  0.17689701     0.41990
Cu130      Cu  0.03107849  0.05460768  0.23128102     0.43880
N131        N  0.06130465  0.99051752  0.23294674    -0.34630
N132        N  0.06344453  0.01971015  0.24732080    -0.28890
C133        C  0.08482511  0.02008541  0.27800601    -0.04990
C134        C  0.09640713  0.98954216  0.28337938     0.07230
C135        C  0.08112877  0.97150826  0.25409546     0.01020
H136        H  0.08892235  0.04009060  0.29753835     0.08670
H137        H  0.08199288  0.94586872  0.25086081     0.07750
N138        N  0.49165697  0.08230936  0.22106209    -0.36080
N139        N  0.46533019  0.07264176  0.20229817    -0.28260
C140        C  0.44349721  0.09496571  0.20585960    -0.03500
C141        C  0.45680114  0.11998589  0.22767512     0.05110
C142        C  0.48731215  0.11098264  0.23684125     0.03200
H143        H  0.41942043  0.09246048  0.19489765     0.08310
H144        H  0.00453491  0.12315473  0.25614408     0.07140
C145        C  0.16426972  0.93651671  0.41830301     0.03170
C146        C  0.15195249  0.93434906  0.45380540    -0.12980
C147        C  0.16510957  0.91370942  0.48255530     0.00670
C148        C  0.19092672  0.89521957  0.47468980    -0.11500
C149        C  0.20161400  0.89512519  0.43818935     0.03160
C150        C  0.18949793  0.91740745  0.41101987    -0.10930
H151        H  0.13099773  0.94741050  0.45775098     0.08760
H152        H  0.20154377  0.87895403  0.49591258     0.06290
H153        H  0.19766048  0.91770771  0.38274843     0.06130
C154        C  0.40545632  0.21698830  0.31908291     0.03170
C155        C  0.40973129  0.24978997  0.31458405    -0.12980
C156        C  0.40922341  0.27073540  0.34580440     0.00670
C157        C  0.40501103  0.25847782  0.38215763    -0.11500
C158        C  0.39944816  0.22570675  0.38738116     0.03160
C159        C  0.39826703  0.20550875  0.35481642    -0.10930
H160        H  0.41554182  0.25882952  0.28725305     0.08760
H161        H  0.40740294  0.27463195  0.40651835     0.06290
H162        H  0.39361436  0.18042473  0.35750613     0.06130
C163        C  0.37211476  0.18436610  0.60743629     0.03170
C164        C  0.37059735  0.19197065  0.56838447    -0.12980
C165        C  0.39272497  0.18033391  0.54502358     0.00670
C166        C  0.41449672  0.15782756  0.56111177    -0.11500
C167        C  0.41458366  0.14781905  0.59951802     0.03160
C168        C  0.39362839  0.16181079  0.62277595    -0.10930
H169        H  0.35237066  0.20780363  0.55686157     0.08760
H170        H  0.43158107  0.14792902  0.54398541     0.06290
H171        H  0.39461639  0.15582271  0.65296628     0.06130
C172        C  0.03732551  0.00724933  0.64519258     0.03170
C173        C  0.01699648  0.03175162  0.63209116    -0.12980
C174        C  0.99710049  0.04571449  0.65689435     0.00670
C175        C  0.99782921  0.03458905  0.69490948    -0.11500
C176        C  0.01812336  0.00999952  0.70791324     0.03160
C177        C  0.03782248  0.99656574  0.68302824    -0.10930
H178        H  0.01648189  0.03968485  0.60261575     0.08760
H179        H  0.48289734  0.04520029  0.71450934     0.06290
H180        H  0.05324712  0.97732971  0.69295525     0.06130
C181        C  0.00285495  0.97562052  0.92450775     0.03170
C182        C  0.00044839  0.94361791  0.93452443    -0.12980
C183        C  0.00415051  0.91951940  0.90744174     0.00670
C184        C  0.01220667  0.92754976  0.87082837    -0.11500
C185        C  0.01491656  0.95972780  0.86065795     0.03160
C186        C  0.01097504  0.98356748  0.88804514    -0.10930
H187        H  0.99228628  0.93758018  0.96186402     0.08760
H188        H  0.01427527  0.90893155  0.84964733     0.06290
H189        H  0.01126669  0.00842596  0.87981580     0.06130
N190        N  0.45614338  0.20671306  0.09735534    -0.27250
N191        N  0.43295531  0.22698249  0.09057059    -0.35110
C192        C  0.44199344  0.25588172  0.10396837     0.01090
C193        C  0.47246378  0.25380535  0.11953317     0.07120
C194        C  0.48061510  0.22219849  0.11544770    -0.05980
H195        H  0.42747398  0.27688397  0.10207029     0.07780
H196        H  0.50297405  0.21153275  0.12367135     0.08980
Cu197      Cu  0.39116837  0.21561742  0.05989722     0.44170
Cu198      Cu  0.45381550  0.15996152  0.07810894     0.41990
Cu199      Cu  0.37804586  0.13482216  0.03130634     0.43880
N200        N  0.35433719  0.20122191  0.02165686    -0.34630
N201        N  0.34880096  0.17129633  0.01155969    -0.28890
C202        C  0.32623913  0.17033289  0.98219281    -0.04990
C203        C  0.31733693  0.20141881  0.97280801     0.07230
C204        C  0.33565619  0.22013064  0.99898560     0.01020
H205        H  0.31841465  0.14850712  0.96800756     0.08670
H206        H  0.33720451  0.24585543  0.99955450     0.07750
N207        N  0.41746817  0.10694456  0.03609502    -0.36080
N208        N  0.44514498  0.11638303  0.05107577    -0.28260
C209        C  0.46641996  0.09533641  0.04125304    -0.03500
C210        C  0.45141048  0.07146286  0.01899092     0.05110
C211        C  0.42037161  0.07961063  0.01675381     0.03200
H212        H  0.49111300  0.09882951  0.04706124     0.08310
H213        H  0.40138298  0.06794809  0.99979376     0.07140
C214        C  0.24994306  0.26306896  0.84174665     0.03170
C215        C  0.22379322  0.28214503  0.84564891    -0.12980
C216        C  0.21226198  0.30232028  0.81613081     0.00670
C217        C  0.22412307  0.30032434  0.78066766    -0.11500
C218        C  0.25106879  0.28243996  0.77599633     0.03160
C219        C  0.26354828  0.26330826  0.80670984    -0.10930
H220        H  0.21388728  0.28344247  0.87281380     0.08760
H221        H  0.21377808  0.31542704  0.75789952     0.06290
H222        H  0.28487606  0.25037037  0.80444630     0.06130
C223        C  0.13946232  0.87316459  0.57123431     0.03170
C224        C  0.15259391  0.87868291  0.53701196    -0.12980
C225        C  0.14988754  0.90842978  0.51857396     0.00670
C226        C  0.13178918  0.93220527  0.53425044    -0.11500
C227        C  0.11674358  0.92604574  0.56713178     0.03160
C228        C  0.12121546  0.89679940  0.58607419    -0.10930
H229        H  0.16516895  0.85932750  0.52522711     0.08760
H230        H  0.12902121  0.95540524  0.52103381     0.06290
H231        H  0.11041227  0.89243292  0.61215184     0.06130
C232        C  0.27307374  0.32216269  0.68610485     0.03170
C233        C  0.29013128  0.29846249  0.66940675    -0.12980
C234        C  0.29750556  0.26981696  0.68916507     0.00670
C235        C  0.28490086  0.26386327  0.72414756    -0.11500
C236        C  0.26752912  0.28766691  0.74094632     0.03160
C237        C  0.26468580  0.31751408  0.72309211    -0.10930
H238        H  0.29710095  0.30188135  0.64083776     0.08760
H239        H  0.28864805  0.24097702  0.73794192     0.06290
H240        H  0.25389006  0.33721115  0.73680553     0.06130
C241        C  0.27556385  0.21481190  0.87211722    -0.26280
C242        C  0.26525217  0.24625764  0.87588024    -0.14350
C243        C  0.27035543  0.26164689  0.91207531     0.36280
C244        C  0.28492054  0.24505588  0.94348446    -0.25720
C245        C  0.29668343  0.21411744  0.93959457    -0.14960
C246        C  0.29129813  0.19867872  0.90320250     0.37370
N247        N  0.30206238  0.16717593  0.89612827    -0.89210
H248        H  0.27168742  0.20274198  0.84454768     0.18480
H249        H  0.28821940  0.25711656  0.97105471     0.18470
N250        N  0.26208034  0.29458232  0.91659018    -0.88240
H251        H  0.29057766  0.15117190  0.91244065     0.35850
H252        H  0.32595249  0.16615901  0.90360198     0.40950
H253        H  0.27564922  0.30812814  0.89974942     0.40570
H254        H  0.26740967  0.30226059  0.94498815     0.35450
C255        C  0.00618001  0.00916623  0.98352828    -0.26280
C256        C  0.48988767  0.00024041  0.94844820    -0.14350
C257        C  0.46078857  0.01426424  0.93706827     0.36280
C258        C  0.44926675  0.03751844  0.96044881    -0.25720
C259        C  0.46534661  0.04665317  0.99567373    -0.14960
C260        C  0.49410497  0.03212082  0.00751010     0.37370
N261        N  0.01065256  0.04018712  0.04395564    -0.89210
H262        H  0.02822884  0.99794963  0.99231749     0.18480
H263        H  0.42730998  0.04843904  0.95067634     0.18470
N264        N  0.44168123  0.00490640  0.90278942    -0.88240
H265        H  0.03143914  0.02749216  0.04808869     0.35850
H266        H  0.99718199  0.03284901  0.06541539     0.40950
H267        H  0.45036556  0.98517783  0.88911514     0.40570
H268        H  0.44100135  0.02394553  0.88361153     0.35450
C269        C  0.10854145  0.97536102  0.60394793    -0.26280
C270        C  0.09571762  0.94984359  0.58169667    -0.14350
C271        C  0.06316430  0.94604337  0.57641260     0.36280
C272        C  0.04445713  0.96679982  0.59544470    -0.25720
C273        C  0.05739652  0.99119330  0.61945981    -0.14960
C274        C  0.08979650  0.99605819  0.62306154     0.37370
N275        N  0.10445002  0.02125964  0.64629085    -0.89210
H276        H  0.13343968  0.97846338  0.60771598     0.18480
H277        H  0.01966107  0.96289701  0.59291153     0.18470
N278        N  0.04836091  0.92092849  0.55311648    -0.88240
H279        H  0.11780858  0.01075211  0.66938313     0.35850
H280        H  0.08829746  0.03598343  0.65783195     0.40950
H281        H  0.06430069  0.90718387  0.53982660     0.40570
H282        H  0.03412216  0.93162779  0.53093421     0.35450
C283        C  0.04137478  0.99001809  0.81276034    -0.26280
C284        C  0.01729672  0.96946277  0.82039134    -0.14350
C285        C  0.99346550  0.96268880  0.79075004     0.36280
C286        C  0.99428478  0.97648309  0.75458643    -0.25720
C287        C  0.01819882  0.99719501  0.74713149    -0.14960
C288        C  0.04214810  0.00404933  0.77658964     0.37370
N289        N  0.06722413  0.02538190  0.77118238    -0.89210
H290        H  0.05935395  0.99588270  0.83550801     0.18480
H291        H  0.97595276  0.97112711  0.73207163     0.18470
N292        N  0.96739458  0.94317711  0.79691003    -0.88240
H293        H  0.06573187  0.04466600  0.79000684     0.35850
H294        H  0.06531753  0.03487360  0.74355988     0.40950
H295        H  0.95688264  0.95238635  0.82022456     0.40570
H296        H  0.97503211  0.92004207  0.80322501     0.35450
C297        C  0.36485518  0.23465129  0.64217859    -0.26280
C298        C  0.35413522  0.20386682  0.63263286    -0.14350
C299        C  0.32569039  0.19360192  0.64427998     0.36280
C300        C  0.30791872  0.21495067  0.66439351    -0.25720
C301        C  0.31805741  0.24634261  0.67238068    -0.14960
C302        C  0.34725886  0.25592530  0.66214107     0.37370
N303        N  0.35871735  0.28743026  0.67168461    -0.89210
H304        H  0.38683039  0.24230361  0.63321333     0.18480
H305        H  0.28557840  0.20756524  0.67241852     0.18470
N306        N  0.31473792  0.16192973  0.63488924    -0.88240
H307        H  0.38043215  0.29079271  0.66188811     0.35850
H308        H  0.36191335  0.28927444  0.70164897     0.40950
H309        H  0.31072479  0.16021757  0.60496370     0.40570
H310        H  0.29345549  0.15808144  0.64562945     0.35450
C311        C  0.42459782  0.09631262  0.63403298    -0.26280
C312        C  0.43630628  0.12248082  0.61526272    -0.14350
C313        C  0.46826273  0.12354819  0.61102698     0.36280
C314        C  0.48762234  0.09834403  0.62466930    -0.25720
C315        C  0.47583723  0.07202250  0.64306054    -0.14960
C316        C  0.44396508  0.07114537  0.64773852     0.37370
N317        N  0.43095315  0.04423696  0.66525033    -0.89210
H318        H  0.40007871  0.09499323  0.63725562     0.18480
H319        H  0.51212134  0.09956386  0.62129948     0.18470
N320        N  0.48131516  0.15053856  0.59373471    -0.88240
H321        H  0.42030917  0.05239855  0.68898210     0.35850
H322        H  0.41385783  0.03438692  0.64548148     0.40950
H323        H  0.49826820  0.16039327  0.61369143     0.40570
H324        H  0.49215656  0.14246661  0.57011465     0.35450
C325        C  0.38464281  0.23258645  0.45464435    -0.26280
C326        C  0.39683523  0.21287892  0.42713304    -0.14350
C327        C  0.40796202  0.18230613  0.43906543     0.36280
C328        C  0.40428171  0.17170598  0.47644646    -0.25720
C329        C  0.39352999  0.19202042  0.50442471    -0.14960
C330        C  0.38491474  0.22354664  0.49331178     0.37370
N331        N  0.37779045  0.24696390  0.52133588    -0.89210
H332        H  0.37571920  0.25590204  0.44647142     0.18480
H333        H  0.41085234  0.14749172  0.48384559     0.18470
N334        N  0.42426735  0.16247312  0.41414152    -0.88240
H335        H  0.37213250  0.26888765  0.50843360     0.35850
H336        H  0.39785067  0.25068627  0.53999685     0.40950
H337        H  0.44467176  0.17432159  0.40934275     0.40570
H338        H  0.43091954  0.14092236  0.42735588     0.35450
C339        C  0.44386755  0.19933814  0.27537293    -0.26280
C340        C  0.41507793  0.19443990  0.28949772    -0.14350
C341        C  0.39811839  0.16672874  0.27828113     0.36280
C342        C  0.41125207  0.14335994  0.25595383    -0.25720
C343        C  0.44110434  0.14727625  0.24450359    -0.14960
C344        C  0.45685151  0.17629642  0.25262623     0.37370
N345        N  0.48624087  0.18203226  0.23835132    -0.89210
H346        H  0.45706561  0.22062945  0.28357890     0.18480
H347        H  0.39863420  0.12144475  0.24924558     0.18470
N348        N  0.36776724  0.16206310  0.28985477    -0.88240
H349        H  0.49483243  0.20447194  0.24711752     0.35850
H350        H  0.48253090  0.18251286  0.20835191     0.40950
H351        H  0.36785479  0.14083359  0.30533973     0.40570
H352        H  0.35239057  0.15929675  0.26506074     0.35450
C353        C  0.14249435  0.98974414  0.33197156    -0.26280
C354        C  0.11338031  0.97717668  0.31889553    -0.14830
C355        C  0.10036239  0.95311864  0.34015672     0.36280
C356        C  0.11723049  0.94129221  0.37328868    -0.25720
C357        C  0.14675186  0.95305493  0.38583875    -0.14960
C358        C  0.15952987  0.97780234  0.36507550     0.37370
N359        N  0.18925217  0.99166773  0.37692283    -0.89210
H360        H  0.15226156  0.00862139  0.31599978     0.18480
H361        H  0.10757598  0.92219386  0.38903366     0.18470
N362        N  0.06997072  0.94090661  0.32814147    -0.88240
H363        H  0.20401012  0.98583861  0.35609164     0.35850
H364        H  0.19905559  0.98233462  0.40293196     0.40950
H365        H  0.05421312  0.95953437  0.33029561     0.40570
H366        H  0.06394195  0.92309348  0.34675717     0.35450
C367        C  0.51164873  0.33406176  0.13377315    -0.26280
C368        C  0.02301260  0.33266496  0.17274441    -0.14350
C369        C  0.02137425  0.30366616  0.19265589     0.36280
C370        C  0.50598226  0.27749025  0.17403488    -0.25720
C371        C  0.49208514  0.28005576  0.13618525    -0.14960
C372        C  0.49610871  0.30824770  0.11542260     0.37370
N373        N  0.48472368  0.31139826  0.07571685    -0.89210
H374        H  0.51295833  0.35613429  0.11810389     0.18480
H375        H  0.50352494  0.25556423  0.18963509     0.18470
N376        N  0.03443426  0.30134653  0.23196198    -0.88240
H377        H  0.46061921  0.31013730  0.07291461     0.35850
H378        H  0.49344091  0.29256395  0.06030297     0.40950
H379        H  0.05833047  0.30458741  0.23243988     0.40570
H380        H  0.03109636  0.27849358  0.24252120     0.35450
C381        C  0.39524449  0.87584702  0.07174289    -0.26280
C382        C  0.40011868  0.84753394  0.09265725    -0.14350
C383        C  0.41741608  0.84857426  0.12904563     0.36280
C384        C  0.43066160  0.87731334  0.14271079    -0.25720
C385        C  0.42758913  0.90522433  0.12069185    -0.14960
C386        C  0.40924637  0.90455687  0.08473228     0.37370
N387        N  0.40581751  0.93151908  0.05943192    -0.89210
H388        H  0.38230010  0.87509074  0.04356442     0.18480
H389        H  0.44453236  0.87756038  0.17028654     0.18470
N390        N  0.42356136  0.82052951  0.15168242    -0.88240
H391        H  0.41487377  0.92509105  0.03387571     0.35850
H392        H  0.41882549  0.95100091  0.07016532     0.40950
H393        H  0.43431769  0.80365304  0.13536307     0.40570
H394        H  0.40255022  0.81125444  0.15862138     0.35450
C395        C  0.24553444  0.85654011  0.45127087    -0.26280
C396        C  0.22021153  0.86749218  0.42654132    -0.14350
C397        C  0.21004983  0.84919898  0.39350050     0.36280
C398        C  0.22503447  0.82053132  0.38639743    -0.25720
C399        C  0.24903350  0.80864693  0.41221992    -0.14960
C400        C  0.26005348  0.82734525  0.44463318     0.37370
N401        N  0.28534428  0.81732640  0.47162578    -0.89210
H402        H  0.25351166  0.87033276  0.47666129     0.18480
H403        H  0.21618861  0.80602342  0.36196340     0.18470
N404        N  0.18311970  0.85845870  0.36867144    -0.88240
H405        H  0.30264072  0.83465548  0.47190953     0.35850
H406        H  0.29531239  0.79629380  0.46260398     0.40950
H407        H  0.16399194  0.85687497  0.38446987     0.40570
H408        H  0.17902595  0.84260176  0.34552501     0.35450
C409        C  0.41830179  0.35411433  0.30595399    -0.26280
C410        C  0.44556383  0.36405121  0.32774448    -0.14350
C411        C  0.45898462  0.34429399  0.35754148     0.36280
C412        C  0.44513611  0.31501112  0.36439501    -0.25720
C413        C  0.41868476  0.30440262  0.34157377    -0.14960
C414        C  0.40448980  0.32471127  0.31264927     0.37370
N415        N  0.37646742  0.31624418  0.28929289    -0.89210
H416        H  0.40800716  0.36907012  0.28294797     0.18480
H417        H  0.45628601  0.29936977  0.38612625     0.18470
N418        N  0.48770665  0.35303849  0.37919898    -0.88240
H419        H  0.36000611  0.33379479  0.29347871     0.35850
H420        H  0.36716864  0.29504087  0.29841650     0.40950
H421        H  0.50487834  0.35298518  0.36028778     0.40570
H422        H  0.49427958  0.33603329  0.40016838     0.35450
C423        C  0.20606683  0.67457141  0.49563837    -0.26280
C424        C  0.22274039  0.64588244  0.49972698    -0.14350
C425        C  0.25046097  0.64278285  0.48191728     0.36280
C426        C  0.26021850  0.66780865  0.45988612    -0.25720
C427        C  0.24278388  0.69589687  0.45434110    -0.14960
C428        C  0.21544396  0.69940400  0.47273304     0.37370
N429        N  0.19640336  0.72732663  0.46653368    -0.89210
H430        H  0.18471749  0.67703125  0.50897425     0.18480
H431        H  0.28117494  0.66484324  0.44583166     0.18470
N432        N  0.26828686  0.61401851  0.48354069    -0.88240
H433        H  0.17720527  0.72615358  0.48225604     0.35850
H434        H  0.18780807  0.72757894  0.43751293     0.40950
H435        H  0.25392140  0.59500256  0.47399666     0.40570
H436        H  0.27738652  0.61024529  0.51190760     0.35450
C437        C  0.49908997  0.47313312  0.39006674    -0.26280
C438        C  0.51558763  0.45349090  0.36657339    -0.14350
C439        C  0.04752921  0.44837465  0.37650044     0.36280
C440        C  0.06216571  0.46293866  0.40962586    -0.25720
C441        C  0.04557218  0.48192529  0.43351982    -0.14960
C442        C  0.01368111  0.48749255  0.42344842     0.37370
N443        N  0.49516105  0.50625409  0.44699246    -0.89210
H444        H  0.47446709  0.47668950  0.38288216     0.18480
H445        H  0.08661823  0.45877616  0.41750525     0.18470
N446        N  0.06472449  0.42734542  0.35389818    -0.88240
H447        H  0.48701286  0.52598487  0.43090194     0.35850
H448        H  0.00819352  0.51514460  0.47143425     0.40950
H449        H  0.05584057  0.40436828  0.35620775     0.40570
H450        H  0.08797362  0.42640566  0.36501973     0.35450
C451        C  0.22750799  0.35512534  0.66543023    -0.26280
C452        C  0.25929510  0.34981935  0.66423454    -0.14350
C453        C  0.27670100  0.37176691  0.64490472     0.36280
C454        C  0.26174670  0.39872168  0.62747759    -0.25720
C455        C  0.22991648  0.40409606  0.62945539    -0.14960
C456        C  0.21294587  0.38212518  0.64924667     0.37370
N457        N  0.18110539  0.38767834  0.65458367    -0.89210
H458        H  0.21381722  0.33845506  0.68014541     0.18480
H459        H  0.27492757  0.41552251  0.61233574     0.18470
N460        N  0.30933038  0.36695192  0.64359138    -0.88240
H461        H  0.17904881  0.38859644  0.68410512     0.35850
H462        H  0.16817930  0.36826422  0.64299588     0.40950
H463        H  0.31990297  0.36842365  0.67176165     0.40570
H464        H  0.31868230  0.38527580  0.62829452     0.35450
C465        C  0.33175399  0.69172572  0.10812819    -0.26280
C466        C  0.30304712  0.70407001  0.11616667    -0.14350
C467        C  0.29448235  0.73523006  0.10406406     0.36280
C468        C  0.31566172  0.75391868  0.08659304    -0.25720
C469        C  0.34519253  0.74240659  0.08069727    -0.14960
C470        C  0.35307762  0.71066685  0.09068816     0.37370
N471        N  0.38317282  0.69834884  0.08496522    -0.89210
H472        H  0.33828053  0.66792068  0.11768328     0.18480
H473        H  0.30926118  0.77809310  0.07841748     0.18470
N474        N  0.26502119  0.74906596  0.11014644    -0.88240
H475        H  0.38524365  0.67464049  0.09386706     0.35850
H476        H  0.39949512  0.71138291  0.10268817     0.40950
H477        H  0.25076447  0.73283067  0.12235688     0.40570
H478        H  0.25372641  0.75455801  0.08316916     0.35450
C479        C  0.25292034  0.72244385  0.25203202    -0.26280
C480        C  0.26921020  0.69421340  0.24658516    -0.14350
C481        C  0.28513665  0.67896166  0.27870201     0.36280
C482        C  0.28405073  0.69228931  0.31543720    -0.25720
C483        C  0.26704947  0.72018676  0.32120399    -0.14960
C484        C  0.25127502  0.73527897  0.28889088     0.37370
N485        N  0.23238855  0.76280324  0.29333678    -0.89210
H486        H  0.24062772  0.73416040  0.22749642     0.18480
H487        H  0.29652041  0.68053832  0.33980038     0.18470
N488        N  0.30299543  0.65038634  0.27524325    -0.88240
H489        H  0.20978627  0.75747999  0.28191944     0.35850
H490        H  0.24057973  0.78126738  0.27719397     0.40950
H491        H  0.30321130  0.64311123  0.24669300     0.40570
H492        H  0.29232894  0.63221408  0.28937687     0.35450
C493        C  0.07755454  0.47031960  0.18378124    -0.26280
C494        C  0.06586647  0.44196263  0.16594594    -0.14350
C495        C  0.07106239  0.43673094  0.12715360     0.36280
C496        C  0.09112312  0.45648675  0.10961576    -0.25720
C497        C  0.10229323  0.48536972  0.12647358    -0.14960
C498        C  0.09408952  0.49283348  0.16385624     0.37370
N499        N  0.10172227  0.52326812  0.18133911    -0.89210
H500        H  0.07352748  0.47535351  0.21323703     0.18480
H501        H  0.09721997  0.44874661  0.08185890     0.18470
N502        N  0.05496949  0.41225997  0.10434397    -0.88240
H503        H  0.09396411  0.52485094  0.20862942     0.35850
H504        H  0.08969964  0.54063716  0.16451061     0.40950
H505        H  0.07134791  0.39735911  0.09339461     0.40570
H506        H  0.04204332  0.42305220  0.08110035     0.35450
C507        C  0.21600200  0.56700072  0.11074410    -0.26280
C508        C  0.18441518  0.57068119  0.11523487    -0.14350
C509        C  0.17460481  0.59822694  0.13440273     0.36280
C510        C  0.19662092  0.62097516  0.14850034    -0.25720
C511        C  0.22814334  0.61758077  0.14345877    -0.14960
C512        C  0.23804510  0.58971158  0.12502371     0.37370
N513        N  0.27007207  0.58326874  0.12074238    -0.89210
H514        H  0.22369862  0.54598552  0.09619533     0.18480
H515        H  0.18878558  0.64221603  0.16246959     0.18470
N516        N  0.14262802  0.60465271  0.13905947    -0.88240
H517        H  0.27582780  0.56178034  0.13465610     0.35850
H518        H  0.28464970  0.60027410  0.13484016     0.40950
H519        H  0.12789435  0.58728522  0.12606480     0.40570
H520        H  0.13657953  0.62585908  0.12466310     0.35450
C521        C  0.21653768  0.35706713  0.84038266    -0.26280
C522        C  0.19696050  0.33232223  0.82588548    -0.14350
C523        C  0.16482406  0.33796907  0.81860936     0.36280
C524        C  0.15319174  0.36846434  0.82605588    -0.25720
C525        C  0.17301407  0.39329792  0.84002665    -0.14960
C526        C  0.20513484  0.38740424  0.84751361     0.37370
N527        N  0.22700196  0.41160760  0.86148988    -0.89210
H528        H  0.24126371  0.35288542  0.84546291     0.18480
H529        H  0.12859743  0.37298373  0.82025035     0.18470
N530        N  0.14352254  0.31361314  0.80384944    -0.88240
H531        H  0.23727485  0.40433024  0.88833736     0.35850
H532        H  0.21639403  0.43343003  0.86599671     0.40950
H533        H  0.15482818  0.29201939  0.80007437     0.40570
H534        H  0.13390376  0.32077666  0.77665428     0.35450
C535        C  0.11300100  0.50371094  0.97559206    -0.26280
C536        C  0.14045603  0.50750871  0.00028099    -0.14350
C537        C  0.16860405  0.49674722  0.98783216     0.36280
C538        C  0.16887347  0.48282384  0.95134867    -0.25720
C539        C  0.14150069  0.47892372  0.92691046    -0.14960
C540        C  0.11312356  0.48940841  0.93916788     0.37370
N541        N  0.08415551  0.48590846  0.91568211    -0.89210
H542        H  0.09116588  0.51161362  0.98484859     0.18480
H543        H  0.19072997  0.47514281  0.94188116     0.18470
N544        N  0.19689257  0.49894421  0.01260499    -0.88240
H545        H  0.07013629  0.47093937  0.93024972     0.35850
H546        H  0.08699312  0.47457298  0.88961527     0.40950
H547        H  0.21259745  0.51237475  0.99865874     0.40570
H548        H  0.20593945  0.47597497  0.01664830     0.35450
C549        C  0.01167958  0.86204452  0.92481278    -0.26280
C550        C  0.99175741  0.88758109  0.91419186    -0.14350
C551        C  0.45944093  0.88295266  0.91066145     0.36280
C552        C  0.44763389  0.85289880  0.91802957    -0.25720
C553        C  0.46733641  0.82747415  0.92923571    -0.14960
C554        C  0.99963248  0.83181168  0.93257444     0.37370
N555        N  0.01983251  0.80576017  0.94422752    -0.89210
H556        H  0.03647101  0.86584992  0.92749429     0.18480
H557        H  0.42279166  0.84932979  0.91577241     0.18470
N558        N  0.43874360  0.90876814  0.89924100    -0.88240
H559        H  0.04295148  0.81295312  0.94543104     0.35850
H560        H  0.01671198  0.78814210  0.92290211     0.40950
H561        H  0.44015814  0.92549149  0.92162339     0.40570
H562        H  0.41580245  0.90086038  0.89599767     0.35450
C563        C  0.20347907  0.55054170  0.79107457    -0.26280
C564        C  0.19549286  0.54994476  0.75122104    -0.14350
C565        C  0.17409383  0.52687996  0.73504316     0.36280
C566        C  0.16144182  0.50501468  0.75935167    -0.25720
C567        C  0.16977191  0.50553976  0.79921411    -0.14960
C568        C  0.19130905  0.52841406  0.81515493     0.37370
N569        N  0.20151675  0.52850396  0.85561735    -0.89210
H570        H  0.21973052  0.56824218  0.80355019     0.18480
H571        H  0.14540436  0.48708955  0.74695160     0.18470
N572        N  0.16581904  0.52378591  0.69433293    -0.88240
H573        H  0.21721440  0.54700659  0.86266918     0.35850
H574        H  0.21351418  0.50723282  0.86178343     0.40950
H575        H  0.17810385  0.53953247  0.67867544     0.40570
H576        H  0.14237468  0.52956044  0.68885224     0.35450
C577        C  0.39535165  0.71159680  0.82291644    -0.26280
C578        C  0.36347223  0.71712097  0.81612252    -0.14350
C579        C  0.34794466  0.73364046  0.84372452     0.36280
C580        C  0.36489936  0.74531944  0.87714836    -0.25720
C581        C  0.39704592  0.74098869  0.88340305    -0.14960
C582        C  0.41238928  0.72346563  0.85633022     0.37370
N583        N  0.44518527  0.71804607  0.86280382    -0.89210
H584        H  0.40699516  0.69843184  0.80181814     0.18480
H585        H  0.35311763  0.75893472  0.89772160     0.18470
N586        N  0.31497629  0.73813654  0.83795642    -0.88240
H587        H  0.45290784  0.70490759  0.84011637     0.35850
H588        H  0.44926364  0.70403774  0.88739840     0.40950
H589        H  0.31030942  0.75402129  0.81524255     0.40570
H590        H  0.30697975  0.74910767  0.86200676     0.35450
C591        C  0.14149166  0.81402037  0.57255002    -0.26280
C592        C  0.14712897  0.84313913  0.59199784    -0.14350
C593        C  0.16470244  0.84355535  0.62817263     0.36280
C594        C  0.17760429  0.81500699  0.64316239    -0.25720
C595        C  0.17363511  0.78618434  0.62257253    -0.14960
C596        C  0.15455236  0.78562893  0.58732787     0.37370
N597        N  0.14973193  0.75722044  0.56458667    -0.89210
H598        H  0.12817739  0.81365951  0.54460595     0.18480
H599        H  0.19202882  0.81549048  0.67032208     0.18470
N600        N  0.17084201  0.87314934  0.64850398    -0.88240
H601        H  0.13805381  0.74066864  0.57992594     0.35850
H602        H  0.17123859  0.74786851  0.55933285     0.40950
H603        H  0.18438711  0.88718517  0.63216557     0.40570
H604        H  0.18401650  0.86924373  0.67476153     0.35450
N605        N  0.70849028  0.71070070  0.65638579    -0.27250
N606        N  0.73228330  0.73032633  0.66261488    -0.35110
C607        C  0.72344093  0.75960394  0.65089131     0.01090
C608        C  0.69263527  0.75850619  0.63641547     0.07120
C609        C  0.68383912  0.72706792  0.64038832    -0.05980
H610        H  0.73819260  0.78042306  0.65365279     0.07780
H611        H  0.66096458  0.71705120  0.63414468     0.08980
Cu612      Cu  0.77469410  0.71839083  0.69125377     0.44170
Cu613      Cu  0.70985078  0.66348336  0.67362779     0.41990
Cu614      Cu  0.78327336  0.63926566  0.72518294     0.43880
N615        N  0.81104880  0.70441042  0.73029009    -0.34630
N616        N  0.81427781  0.67493513  0.74304533    -0.28890
C617        C  0.83575603  0.67449473  0.77358413    -0.04990
C618        C  0.84646776  0.70521924  0.78033020     0.07230
C619        C  0.83039079  0.72354622  0.75228504     0.01020
H620        H  0.84068046  0.65410835  0.79196970     0.08670
H621        H  0.83044873  0.74927377  0.75046266     0.07750
N622        N  0.74462399  0.61046848  0.71650750    -0.36080
N623        N  0.71760108  0.61923654  0.69888613    -0.28260
C624        C  0.69620569  0.59727744  0.70546103    -0.03500
C625        C  0.71054589  0.57359332  0.72821338     0.05110
C626        C  0.74117665  0.58282933  0.73454741     0.03200
H627        H  0.67161623  0.59993393  0.69749472     0.08310
H628        H  0.75900295  0.57188469  0.75402136     0.07140
C629        C  0.91446004  0.75746210  0.91646312     0.03170
C630        C  0.90417281  0.75652170  0.95338533    -0.12980
C631        C  0.91832451  0.77558102  0.98357427     0.00670
C632        C  0.94429820  0.79397959  0.97635690    -0.11500
C633        C  0.95255302  0.79744067  0.93904654     0.03160
C634        C  0.93819269  0.77857338  0.90944880    -0.10930
H635        H  0.88396103  0.74244882  0.95754483     0.08760
H636        H  0.95637385  0.80850987  0.99871478     0.06290
H637        H  0.94359957  0.78244258  0.88024702     0.06130
C638        C  0.65797406  0.48077046  0.82395101     0.03170
C639        C  0.64665030  0.48961350  0.85863845    -0.12980
C640        C  0.64432120  0.46717107  0.88754996     0.00670
C641        C  0.65102371  0.43502769  0.88062393    -0.11500
C642        C  0.66031037  0.42554081  0.84493997     0.03160
C643        C  0.66365339  0.44848980  0.81665631    -0.10930
H644        H  0.64275318  0.51458677  0.86473879     0.08760
H645        H  0.65092875  0.41788326  0.90364083     0.06290
H646        H  0.67348175  0.44158307  0.79053749     0.06130
C647        C  0.62141062  0.50677787  0.10346187     0.03170
C648        C  0.61811737  0.50428399  0.06294337    -0.12980
C649        C  0.63902734  0.51870861  0.04058877     0.00670
C650        C  0.66022179  0.54086912  0.05795260    -0.11500
C651        C  0.66232351  0.54634614  0.09775513     0.03160
C652        C  0.64437009  0.52777833  0.12059341    -0.10930
H653        H  0.60019388  0.48963119  0.04824000     0.08760
H654        H  0.67534155  0.55362519  0.04055735     0.06290
H655        H  0.64899068  0.52974263  0.15142829     0.06130
C656        C  0.78507986  0.68644453  0.14279888     0.03170
C657        C  0.76676019  0.66000517  0.13061306    -0.12980
C658        C  0.74946791  0.64408841  0.15666476     0.00670
C659        C  0.75074460  0.65510636  0.19489986    -0.11500
C660        C  0.76900915  0.68154860  0.20705116     0.03160
C661        C  0.78600225  0.69710052  0.18092869    -0.10930
H662        H  0.76546731  0.65227036  0.10086748     0.08760
H663        H  0.73720394  0.64340012  0.21507176     0.06290
H664        H  0.79987037  0.71773452  0.19024153     0.06130
N665        N  0.70357796  0.48086132  0.58831302    -0.27250
N666        N  0.67837725  0.46333683  0.58121742    -0.35110
C667        C  0.68414379  0.43371373  0.59394794     0.01090
C668        C  0.71436153  0.43224633  0.61063901     0.07120
C669        C  0.72616809  0.46260271  0.60620742    -0.05980
H670        H  0.66749572  0.41452353  0.59041560     0.07780
H671        H  0.74931874  0.47085378  0.61552847     0.08980
Cu672      Cu  0.63703581  0.47859928  0.55321590     0.44170
Cu673      Cu  0.70520562  0.52819623  0.57114237     0.41990
Cu674      Cu  0.63188653  0.55651699  0.51850374     0.43880
N675        N  0.59975089  0.49401311  0.51700070    -0.34630
N676        N  0.59763297  0.52332289  0.50362741    -0.28890
C677        C  0.57505619  0.52442032  0.47432560    -0.04990
C678        C  0.56237671  0.49426502  0.46918898     0.07230
C679        C  0.57868543  0.47562776  0.49670379     0.01020
H680        H  0.57093849  0.54444108  0.45515882     0.08670
H681        H  0.57791164  0.44991843  0.49859764     0.07750
N682        N  0.67250337  0.58237353  0.52670442    -0.36080
N683        N  0.69893982  0.57249638  0.54493312    -0.28260
C684        C  0.72104114  0.59417698  0.54014518    -0.03500
C685        C  0.70791033  0.61862384  0.51742391     0.05110
C686        C  0.67710219  0.61035207  0.50993329     0.03200
H687        H  0.74491936  0.59166789  0.55168139     0.08310
H688        H  0.65963636  0.62276770  0.49140732     0.07140
C689        C  0.99858433  0.43537888  0.33460055     0.03170
C690        C  0.00937991  0.43413952  0.29799132    -0.12980
C691        C  0.99686343  0.41214049  0.27011996     0.00670
C692        C  0.97170324  0.39317319  0.27865887    -0.11500
C693        C  0.96240148  0.39251364  0.31578922     0.03160
C694        C  0.97483697  0.41477727  0.34304921    -0.10930
H695        H  0.02914590  0.44848595  0.29253876     0.08760
H696        H  0.96126915  0.37633234  0.25766026     0.06290
H697        H  0.96805916  0.41401057  0.37202007     0.06130
C698        C  0.75199895  0.71974958  0.42641434     0.03170
C699        C  0.75791532  0.70959555  0.38951204    -0.12980
C700        C  0.76417820  0.73158396  0.36121528     0.00670
C701        C  0.76512303  0.76420287  0.37068247    -0.11500
C702        C  0.75793005  0.77488035  0.40689807     0.03160
C703        C  0.75228465  0.75248637  0.43497363    -0.10930
H704        H  0.75594624  0.68449320  0.38219490     0.08760
H705        H  0.76978983  0.78160163  0.34929954     0.06290
H706        H  0.74640174  0.76067407  0.46276639     0.06130
C707        C  0.89290658  0.81685591  0.07253386     0.03170
C708        C  0.90702969  0.81027191  0.03924698    -0.12980
C709        C  0.90334582  0.78071933  0.02000933     0.00670
C710        C  0.88360768  0.75795144  0.03440392    -0.11500
C711        C  0.86791977  0.76494306  0.06687474     0.03160
C712        C  0.87304821  0.79434784  0.08601546    -0.10930
H713        H  0.92061119  0.82905830  0.02831439     0.08760
H714        H  0.87980288  0.73512001  0.02018739     0.06290
H715        H  0.86131095  0.79980221  0.11116511     0.06130
C716        C  0.53078418  0.36317483  0.19304927     0.03170
C717        C  0.51403426  0.37232571  0.22316948    -0.12980
C718        C  0.51371791  0.40413736  0.23605343     0.00670
C719        C  0.53044355  0.42710673  0.21720173    -0.11500
C720        C  0.54868935  0.41798582  0.18756816     0.03160
C721        C  0.54994110  0.38536022  0.17779026    -0.10930
H722        H  0.00080581  0.35422580  0.23598696     0.08760
H723        H  0.52873063  0.45192801  0.22522089     0.06290
H724        H  0.56498423  0.37680110  0.15719443     0.06130
N725        N  0.95953514  0.98116581  0.15783715    -0.27250
N726        N  0.98411619  0.96250652  0.16320620    -0.35110
C727        C  0.97655291  0.93318436  0.14987641     0.01090
C728        C  0.94580695  0.93333900  0.13510464     0.07120
C729        C  0.93561825  0.96411560  0.14092363    -0.05980
H730        H  0.49205785  0.91292682  0.15190565     0.07780
H731        H  0.91232133  0.97313675  0.13465175     0.08980
Cu732      Cu  0.52577301  0.97589635  0.19285804     0.44170
Cu733      Cu  0.95919321  0.02802307  0.17689701     0.41990
Cu734      Cu  0.53107849  0.05460768  0.23128101     0.43880
N735        N  0.56130466  0.99051752  0.23294674    -0.34630
N736        N  0.56344454  0.01971015  0.24732080    -0.28890
C737        C  0.58482512  0.02008541  0.27800600    -0.04990
C738        C  0.59640714  0.98954216  0.28337938     0.07230
C739        C  0.58112878  0.97150826  0.25409546     0.01020
H740        H  0.58892236  0.04009060  0.29753834     0.08670
H741        H  0.58199289  0.94586872  0.25086081     0.07750
N742        N  0.99165697  0.08230936  0.22106209    -0.36080
N743        N  0.96533018  0.07264177  0.20229817    -0.28260
C744        C  0.94349720  0.09496571  0.20585960    -0.03500
C745        C  0.95680113  0.11998589  0.22767513     0.05110
C746        C  0.98731214  0.11098264  0.23684125     0.03200
H747        H  0.91942043  0.09246048  0.19489765     0.08310
H748        H  0.50453491  0.12315473  0.25614408     0.07140
C749        C  0.66426972  0.93651671  0.41830301     0.03170
C750        C  0.65195250  0.93434907  0.45380541    -0.12980
C751        C  0.66510957  0.91370943  0.48255530     0.00670
C752        C  0.69092672  0.89521957  0.47468980    -0.11500
C753        C  0.70161400  0.89512520  0.43818935     0.03160
C754        C  0.68949794  0.91740745  0.41101987    -0.10930
H755        H  0.63099773  0.94741051  0.45775098     0.08760
H756        H  0.70154377  0.87895404  0.49591258     0.06290
H757        H  0.69766048  0.91770772  0.38274843     0.06130
C758        C  0.90545632  0.21698830  0.31908292     0.03170
C759        C  0.90973129  0.24978997  0.31458405    -0.12980
C760        C  0.90922341  0.27073541  0.34580440     0.00670
C761        C  0.90501103  0.25847782  0.38215763    -0.11500
C762        C  0.89944817  0.22570676  0.38738117     0.03160
C763        C  0.89826703  0.20550876  0.35481642    -0.10930
H764        H  0.91554182  0.25882953  0.28725305     0.08760
H765        H  0.90740295  0.27463195  0.40651835     0.06290
H766        H  0.89361436  0.18042473  0.35750613     0.06130
C767        C  0.87211476  0.18436610  0.60743629     0.03170
C768        C  0.87059735  0.19197065  0.56838447    -0.12980
C769        C  0.89272498  0.18033391  0.54502359     0.00670
C770        C  0.91449673  0.15782756  0.56111177    -0.11500
C771        C  0.91458367  0.14781905  0.59951802     0.03160
C772        C  0.89362839  0.16181079  0.62277595    -0.10930
H773        H  0.85237067  0.20780363  0.55686158     0.08760
H774        H  0.93158107  0.14792902  0.54398541     0.06290
H775        H  0.89461639  0.15582271  0.65296628     0.06130
C776        C  0.53732551  0.00724933  0.64519258     0.03170
C777        C  0.51699647  0.03175162  0.63209116    -0.12980
C778        C  0.49710048  0.04571449  0.65689434     0.00670
C779        C  0.49782921  0.03458905  0.69490948    -0.11500
C780        C  0.51812336  0.00999952  0.70791324     0.03160
C781        C  0.53782248  0.99656574  0.68302824    -0.10930
H782        H  0.51648188  0.03968485  0.60261575     0.08760
H783        H  0.98289734  0.04520029  0.71450934     0.06290
H784        H  0.55324712  0.97732971  0.69295525     0.06130
C785        C  0.50285494  0.97562052  0.92450775     0.03170
C786        C  0.50044838  0.94361792  0.93452443    -0.12980
C787        C  0.50415051  0.91951941  0.90744173     0.00670
C788        C  0.51220667  0.92754976  0.87082837    -0.11500
C789        C  0.51491656  0.95972781  0.86065795     0.03160
C790        C  0.51097503  0.98356748  0.88804514    -0.10930
H791        H  0.49228627  0.93758018  0.96186402     0.08760
H792        H  0.51427527  0.90893155  0.84964733     0.06290
H793        H  0.51126668  0.00842596  0.87981580     0.06130
N794        N  0.95614337  0.20671306  0.09735534    -0.27250
N795        N  0.93295530  0.22698249  0.09057059    -0.35110
C796        C  0.94199343  0.25588172  0.10396837     0.01090
C797        C  0.97246377  0.25380535  0.11953317     0.07120
C798        C  0.98061510  0.22219850  0.11544770    -0.05980
H799        H  0.92747397  0.27688397  0.10207030     0.07780
H800        H  0.00297404  0.21153276  0.12367134     0.08980
Cu801      Cu  0.89116836  0.21561741  0.05989722     0.44170
Cu802      Cu  0.95381550  0.15996152  0.07810893     0.41990
Cu803      Cu  0.87804586  0.13482216  0.03130634     0.43880
N804        N  0.85433718  0.20122190  0.02165687    -0.34630
N805        N  0.84880096  0.17129632  0.01155969    -0.28890
C806        C  0.82623913  0.17033288  0.98219281    -0.04990
C807        C  0.81733692  0.20141880  0.97280801     0.07230
C808        C  0.83565619  0.22013063  0.99898560     0.01020
H809        H  0.81841466  0.14850711  0.96800755     0.08670
H810        H  0.83720450  0.24585542  0.99955451     0.07750
N811        N  0.91746817  0.10694456  0.03609502    -0.36080
N812        N  0.94514498  0.11638304  0.05107576    -0.28260
C813        C  0.96641997  0.09533641  0.04125303    -0.03500
C814        C  0.95141048  0.07146286  0.01899091     0.05110
C815        C  0.92037162  0.07961063  0.01675381     0.03200
H816        H  0.99111300  0.09882952  0.04706122     0.08310
H817        H  0.90138298  0.06794809  0.99979376     0.07140
C818        C  0.74994306  0.26306896  0.84174665     0.03170
C819        C  0.72379322  0.28214503  0.84564891    -0.12980
C820        C  0.71226198  0.30232027  0.81613081     0.00670
C821        C  0.72412307  0.30032434  0.78066766    -0.11500
C822        C  0.75106879  0.28243996  0.77599633     0.03160
C823        C  0.76354828  0.26330826  0.80670985    -0.10930
H824        H  0.71388728  0.28344246  0.87281380     0.08760
H825        H  0.71377809  0.31542704  0.75789952     0.06290
H826        H  0.78487606  0.25037037  0.80444630     0.06130
C827        C  0.63946232  0.87316459  0.57123431     0.03170
C828        C  0.65259391  0.87868291  0.53701196    -0.12980
C829        C  0.64988755  0.90842978  0.51857396     0.00670
C830        C  0.63178918  0.93220527  0.53425044    -0.11500
C831        C  0.61674358  0.92604575  0.56713177     0.03160
C832        C  0.62121546  0.89679940  0.58607419    -0.10930
H833        H  0.66516895  0.85932750  0.52522711     0.08760
H834        H  0.62902121  0.95540525  0.52103381     0.06290
H835        H  0.61041227  0.89243291  0.61215184     0.06130
C836        C  0.77307374  0.32216269  0.68610486     0.03170
C837        C  0.79013128  0.29846249  0.66940676    -0.12980
C838        C  0.79750556  0.26981696  0.68916508     0.00670
C839        C  0.78490087  0.26386327  0.72414756    -0.11500
C840        C  0.76752912  0.28766691  0.74094632     0.03160
C841        C  0.76468580  0.31751408  0.72309211    -0.10930
H842        H  0.79710095  0.30188135  0.64083776     0.08760
H843        H  0.78864805  0.24097702  0.73794192     0.06290
H844        H  0.75389006  0.33721115  0.73680553     0.06130
C845        C  0.77556386  0.21481190  0.87211722    -0.26280
C846        C  0.76525217  0.24625763  0.87588024    -0.14350
C847        C  0.77035543  0.26164688  0.91207531     0.36280
C848        C  0.78492054  0.24505587  0.94348446    -0.25720
C849        C  0.79668343  0.21411743  0.93959457    -0.14960
C850        C  0.79129813  0.19867871  0.90320250     0.37370
N851        N  0.80206238  0.16717593  0.89612827    -0.89210
H852        H  0.77168742  0.20274198  0.84454768     0.18480
H853        H  0.78821940  0.25711655  0.97105472     0.18470
N854        N  0.76208034  0.29458232  0.91659019    -0.88240
H855        H  0.79057766  0.15117189  0.91244065     0.35850
H856        H  0.82595249  0.16615901  0.90360198     0.40950
H857        H  0.77564922  0.30812814  0.89974943     0.40570
H858        H  0.76740966  0.30226058  0.94498815     0.35450
C859        C  0.50617999  0.00916622  0.98352829    -0.26280
C860        C  0.98988768  0.00024041  0.94844821    -0.14350
C861        C  0.96078857  0.01426423  0.93706828     0.36280
C862        C  0.94926675  0.03751843  0.96044882    -0.25720
C863        C  0.96534662  0.04665317  0.99567373    -0.14960
C864        C  0.99410498  0.03212083  0.00751009     0.37370
N865        N  0.51065254  0.04018710  0.04395565    -0.89210
H866        H  0.52822882  0.99794962  0.99231749     0.18480
H867        H  0.92730998  0.04843903  0.95067634     0.18470
N868        N  0.94168123  0.00490639  0.90278944    -0.88240
H869        H  0.53143912  0.02749214  0.04808870     0.35850
H870        H  0.49718197  0.03284899  0.06541540     0.40950
H871        H  0.95036556  0.98517782  0.88911515     0.40570
H872        H  0.94100134  0.02394551  0.88361154     0.35450
C873        C  0.60854145  0.97536102  0.60394794    -0.26280
C874        C  0.59571762  0.94984359  0.58169667    -0.14350
C875        C  0.56316430  0.94604338  0.57641260     0.36280
C876        C  0.54445713  0.96679982  0.59544469    -0.25720
C877        C  0.55739652  0.99119330  0.61945981    -0.14960
C878        C  0.58979650  0.99605819  0.62306154     0.37370
N879        N  0.60445002  0.02125963  0.64629085    -0.89210
H880        H  0.63343968  0.97846338  0.60771598     0.18480
H881        H  0.51966106  0.96289701  0.59291152     0.18470
N882        N  0.54836091  0.92092849  0.55311647    -0.88240
H883        H  0.61780858  0.01075211  0.66938313     0.35850
H884        H  0.58829746  0.03598343  0.65783196     0.40950
H885        H  0.56430069  0.90718388  0.53982660     0.40570
H886        H  0.53412216  0.93162779  0.53093421     0.35450
C887        C  0.54137478  0.99001809  0.81276034    -0.26280
C888        C  0.51729672  0.96946277  0.82039134    -0.14350
C889        C  0.49346550  0.96268881  0.79075004     0.36280
C890        C  0.49428478  0.97648309  0.75458643    -0.25720
C891        C  0.51819882  0.99719501  0.74713149    -0.14960
C892        C  0.54214810  0.00404933  0.77658964     0.37370
N893        N  0.56722413  0.02538191  0.77118238    -0.89210
H894        H  0.55935394  0.99588271  0.83550801     0.18480
H895        H  0.47595276  0.97112711  0.73207163     0.18470
N896        N  0.46739458  0.94317711  0.79691003    -0.88240
H897        H  0.56573187  0.04466601  0.79000683     0.35850
H898        H  0.56531752  0.03487360  0.74355988     0.40950
H899        H  0.45688263  0.95238635  0.82022455     0.40570
H900        H  0.47503211  0.92004207  0.80322501     0.35450
C901        C  0.86485518  0.23465129  0.64217859    -0.26280
C902        C  0.85413522  0.20386682  0.63263286    -0.14350
C903        C  0.82569039  0.19360192  0.64427999     0.36280
C904        C  0.80791872  0.21495067  0.66439352    -0.25720
C905        C  0.81805741  0.24634261  0.67238069    -0.14960
C906        C  0.84725886  0.25592530  0.66214108     0.37370
N907        N  0.85871735  0.28743026  0.67168462    -0.89210
H908        H  0.88683039  0.24230361  0.63321334     0.18480
H909        H  0.78557840  0.20756524  0.67241852     0.18470
N910        N  0.81473792  0.16192973  0.63488924    -0.88240
H911        H  0.88043215  0.29079271  0.66188812     0.35850
H912        H  0.86191335  0.28927444  0.70164897     0.40950
H913        H  0.81072480  0.16021757  0.60496370     0.40570
H914        H  0.79345549  0.15808144  0.64562946     0.35450
C915        C  0.92459782  0.09631262  0.63403298    -0.26280
C916        C  0.93630628  0.12248082  0.61526273    -0.14350
C917        C  0.96826274  0.12354819  0.61102698     0.36280
C918        C  0.98762234  0.09834403  0.62466930    -0.25720
C919        C  0.97583723  0.07202250  0.64306055    -0.14960
C920        C  0.94396508  0.07114537  0.64773852     0.37370
N921        N  0.93095315  0.04423696  0.66525033    -0.89210
H922        H  0.90007872  0.09499323  0.63725562     0.18480
H923        H  0.01212134  0.09956386  0.62129948     0.18470
N924        N  0.98131517  0.15053856  0.59373471    -0.88240
H925        H  0.92030918  0.05239855  0.68898210     0.35850
H926        H  0.91385783  0.03438693  0.64548148     0.40950
H927        H  0.99826820  0.16039327  0.61369144     0.40570
H928        H  0.99215656  0.14246661  0.57011466     0.35450
C929        C  0.88464281  0.23258645  0.45464435    -0.26280
C930        C  0.89683523  0.21287893  0.42713305    -0.14350
C931        C  0.90796203  0.18230613  0.43906543     0.36280
C932        C  0.90428172  0.17170599  0.47644647    -0.25720
C933        C  0.89352999  0.19202042  0.50442472    -0.14960
C934        C  0.88491474  0.22354664  0.49331179     0.37370
N935        N  0.87779045  0.24696391  0.52133589    -0.89210
H936        H  0.87571920  0.25590204  0.44647143     0.18480
H937        H  0.91085234  0.14749172  0.48384559     0.18470
N938        N  0.92426735  0.16247312  0.41414152    -0.88240
H939        H  0.87213251  0.26888766  0.50843360     0.35850
H940        H  0.89785068  0.25068628  0.53999685     0.40950
H941        H  0.94467176  0.17432159  0.40934275     0.40570
H942        H  0.93091954  0.14092236  0.42735588     0.35450
C943        C  0.94386754  0.19933814  0.27537293    -0.26280
C944        C  0.91507792  0.19443990  0.28949773    -0.14350
C945        C  0.89811839  0.16672874  0.27828114     0.36280
C946        C  0.91125207  0.14335994  0.25595383    -0.25720
C947        C  0.94110434  0.14727625  0.24450359    -0.14960
C948        C  0.95685151  0.17629642  0.25262623     0.37370
N949        N  0.98624087  0.18203226  0.23835132    -0.89210
H950        H  0.95706561  0.22062946  0.28357891     0.18480
H951        H  0.89863419  0.12144476  0.24924559     0.18470
N952        N  0.86776723  0.16206311  0.28985478    -0.88240
H953        H  0.99483242  0.20447194  0.24711752     0.35850
H954        H  0.98253090  0.18251286  0.20835191     0.40950
H955        H  0.86785479  0.14083359  0.30533974     0.40570
H956        H  0.85239057  0.15929675  0.26506074     0.35450
C957        C  0.64249436  0.98974415  0.33197156    -0.26280
C958        C  0.61338032  0.97717668  0.31889553    -0.14830
C959        C  0.60036240  0.95311865  0.34015672     0.36280
C960        C  0.61723050  0.94129222  0.37328868    -0.25720
C961        C  0.64675186  0.95305494  0.38583876    -0.14960
C962        C  0.65952988  0.97780235  0.36507550     0.37370
N963        N  0.68925217  0.99166773  0.37692284    -0.89210
H964        H  0.65226157  0.00862139  0.31599978     0.18480
H965        H  0.60757599  0.92219387  0.38903367     0.18470
N966        N  0.56997073  0.94090662  0.32814147    -0.88240
H967        H  0.70401013  0.98583861  0.35609164     0.35850
H968        H  0.69905559  0.98233463  0.40293196     0.40950
H969        H  0.55421313  0.95953438  0.33029561     0.40570
H970        H  0.56394195  0.92309349  0.34675718     0.35450
C971        C  0.01164872  0.33406177  0.13377314    -0.26280
C972        C  0.52301261  0.33266496  0.17274442    -0.14350
C973        C  0.52137425  0.30366616  0.19265590     0.36280
C974        C  0.00598226  0.27749025  0.17403487    -0.25720
C975        C  0.99208513  0.28005576  0.13618525    -0.14960
C976        C  0.99610869  0.30824771  0.11542260     0.37370
N977        N  0.98472366  0.31139826  0.07571684    -0.89210
H978        H  0.01295831  0.35613430  0.11810388     0.18480
H979        H  0.00352494  0.25556424  0.18963508     0.18470
N980        N  0.53443426  0.30134653  0.23196199    -0.88240
H981        H  0.96061919  0.31013731  0.07291461     0.35850
H982        H  0.99344088  0.29256396  0.06030296     0.40950
H983        H  0.55833046  0.30458740  0.23243990     0.40570
H984        H  0.53109635  0.27849358  0.24252121     0.35450
C985        C  0.89524448  0.87584702  0.07174288    -0.26280
C986        C  0.90011867  0.84753395  0.09265725    -0.14350
C987        C  0.91741607  0.84857426  0.12904563     0.36280
C988        C  0.93066160  0.87731334  0.14271079    -0.25720
C989        C  0.92758912  0.90522434  0.12069184    -0.14960
C990        C  0.90924636  0.90455687  0.08473228     0.37370
N991        N  0.90581750  0.93151909  0.05943192    -0.89210
H992        H  0.88230010  0.87509074  0.04356442     0.18480
H993        H  0.94453235  0.87756038  0.17028653     0.18470
N994        N  0.92356135  0.82052952  0.15168241    -0.88240
H995        H  0.91487376  0.92509105  0.03387570     0.35850
H996        H  0.91882548  0.95100091  0.07016532     0.40950
H997        H  0.93431768  0.80365304  0.13536307     0.40570
H998        H  0.90255022  0.81125444  0.15862138     0.35450
C999        C  0.74553444  0.85654011  0.45127087    -0.26280
C1000       C  0.72021153  0.86749218  0.42654132    -0.14350
C1001       C  0.71004983  0.84919898  0.39350050     0.36280
C1002       C  0.72503446  0.82053132  0.38639743    -0.25720
C1003       C  0.74903349  0.80864693  0.41221992    -0.14960
C1004       C  0.76005348  0.82734525  0.44463318     0.37370
N1005       N  0.78534428  0.81732640  0.47162578    -0.89210
H1006       H  0.75351166  0.87033276  0.47666129     0.18480
H1007       H  0.71618859  0.80602342  0.36196340     0.18470
N1008       N  0.68311970  0.85845870  0.36867145    -0.88240
H1009       H  0.80264072  0.83465548  0.47190952     0.35850
H1010       H  0.79531239  0.79629380  0.46260398     0.40950
H1011       H  0.66399193  0.85687498  0.38446988     0.40570
H1012       H  0.67902594  0.84260177  0.34552501     0.35450
C1013       C  0.91830179  0.35411433  0.30595399    -0.26280
C1014       C  0.94556384  0.36405121  0.32774448    -0.14350
C1015       C  0.95898462  0.34429399  0.35754148     0.36280
C1016       C  0.94513611  0.31501112  0.36439501    -0.25720
C1017       C  0.91868476  0.30440263  0.34157377    -0.14960
C1018       C  0.90448980  0.32471128  0.31264927     0.37370
N1019       N  0.87646742  0.31624418  0.28929290    -0.89210
H1020       H  0.90800716  0.36907012  0.28294797     0.18480
H1021       H  0.95628601  0.29936977  0.38612625     0.18470
N1022       N  0.98770665  0.35303849  0.37919897    -0.88240
H1023       H  0.86000611  0.33379479  0.29347872     0.35850
H1024       H  0.86716864  0.29504088  0.29841651     0.40950
H1025       H  0.00487834  0.35298518  0.36028778     0.40570
H1026       H  0.99427959  0.33603329  0.40016838     0.35450
C1027       C  0.70606682  0.67457141  0.49563837    -0.26280
C1028       C  0.72274039  0.64588244  0.49972698    -0.14350
C1029       C  0.75046097  0.64278285  0.48191728     0.36280
C1030       C  0.76021850  0.66780865  0.45988612    -0.25720
C1031       C  0.74278388  0.69589687  0.45434111    -0.14960
C1032       C  0.71544396  0.69940400  0.47273305     0.37370
N1033       N  0.69640336  0.72732663  0.46653369    -0.89210
H1034       H  0.68471749  0.67703124  0.50897426     0.18480
H1035       H  0.78117494  0.66484324  0.44583167     0.18470
N1036       N  0.76828686  0.61401851  0.48354070    -0.88240
H1037       H  0.67720527  0.72615358  0.48225605     0.35850
H1038       H  0.68780806  0.72757893  0.43751293     0.40950
H1039       H  0.75392140  0.59500256  0.47399667     0.40570
H1040       H  0.77738652  0.61024529  0.51190761     0.35450
C1041       C  0.99908997  0.47313312  0.39006674    -0.26280
C1042       C  0.01558763  0.45349090  0.36657339    -0.14350
C1043       C  0.54752921  0.44837465  0.37650045     0.36280
C1044       C  0.56216570  0.46293865  0.40962586    -0.25720
C1045       C  0.54557217  0.48192529  0.43351982    -0.14960
C1046       C  0.51368110  0.48749255  0.42344842     0.37370
N1047       N  0.99516105  0.50625409  0.44699246    -0.89210
H1048       H  0.97446709  0.47668950  0.38288216     0.18480
H1049       H  0.58661822  0.45877616  0.41750525     0.18470
N1050       N  0.56472449  0.42734542  0.35389818    -0.88240
H1051       H  0.98701286  0.52598487  0.43090194     0.35850
H1052       H  0.50819352  0.51514460  0.47143425     0.40950
H1053       H  0.55584057  0.40436828  0.35620775     0.40570
H1054       H  0.58797361  0.42640566  0.36501974     0.35450
C1055       C  0.72750799  0.35512534  0.66543024    -0.26280
C1056       C  0.75929510  0.34981935  0.66423455    -0.14350
C1057       C  0.77670100  0.37176691  0.64490472     0.36280
C1058       C  0.76174670  0.39872167  0.62747758    -0.25720
C1059       C  0.72991648  0.40409606  0.62945539    -0.14960
C1060       C  0.71294587  0.38212518  0.64924667     0.37370
N1061       N  0.68110539  0.38767834  0.65458367    -0.89210
H1062       H  0.71381722  0.33845506  0.68014542     0.18480
H1063       H  0.77492757  0.41552251  0.61233573     0.18470
N1064       N  0.80933038  0.36695192  0.64359138    -0.88240
H1065       H  0.67904881  0.38859644  0.68410512     0.35850
H1066       H  0.66817930  0.36826422  0.64299589     0.40950
H1067       H  0.81990297  0.36842365  0.67176165     0.40570
H1068       H  0.81868230  0.38527580  0.62829452     0.35450
C1069       C  0.83175399  0.69172572  0.10812819    -0.26280
C1070       C  0.80304711  0.70407001  0.11616667    -0.14350
C1071       C  0.79448235  0.73523006  0.10406407     0.36280
C1072       C  0.81566172  0.75391868  0.08659305    -0.25720
C1073       C  0.84519252  0.74240659  0.08069727    -0.14960
C1074       C  0.85307761  0.71066685  0.09068817     0.37370
N1075       N  0.88317282  0.69834885  0.08496522    -0.89210
H1076       H  0.83828052  0.66792068  0.11768328     0.18480
H1077       H  0.80926117  0.77809311  0.07841748     0.18470
N1078       N  0.76502119  0.74906597  0.11014644    -0.88240
H1079       H  0.88524365  0.67464049  0.09386707     0.35850
H1080       H  0.89949512  0.71138291  0.10268817     0.40950
H1081       H  0.75076447  0.73283067  0.12235688     0.40570
H1082       H  0.75372640  0.75455801  0.08316916     0.35450
C1083       C  0.75292031  0.72244384  0.25203202    -0.26280
C1084       C  0.76921019  0.69421340  0.24658516    -0.14350
C1085       C  0.78513665  0.67896167  0.27870200     0.36280
C1086       C  0.78405073  0.69228932  0.31543720    -0.25720
C1087       C  0.76704946  0.72018676  0.32120399    -0.14960
C1088       C  0.75127499  0.73527896  0.28889088     0.37370
N1089       N  0.73238850  0.76280322  0.29333679    -0.89210
H1090       H  0.74062768  0.73416038  0.22749643     0.18480
H1091       H  0.79652042  0.68053834  0.33980037     0.18470
N1092       N  0.80299545  0.65038636  0.27524324    -0.88240
H1093       H  0.70978623  0.75747996  0.28191946     0.35850
H1094       H  0.74057968  0.78126736  0.27719397     0.40950
H1095       H  0.80321132  0.64311125  0.24669300     0.40570
H1096       H  0.79232897  0.63221409  0.28937687     0.35450
C1097       C  0.57755454  0.47031959  0.18378124    -0.26280
C1098       C  0.56586648  0.44196263  0.16594594    -0.14350
C1099       C  0.57106239  0.43673093  0.12715360     0.36280
C1100       C  0.59112312  0.45648674  0.10961576    -0.25720
C1101       C  0.60229323  0.48536971  0.12647358    -0.14960
C1102       C  0.59408952  0.49283347  0.16385624     0.37370
N1103       N  0.60172227  0.52326811  0.18133911    -0.89210
H1104       H  0.57352749  0.47535351  0.21323703     0.18480
H1105       H  0.59721997  0.44874660  0.08185890     0.18470
N1106       N  0.55496950  0.41225996  0.10434398    -0.88240
H1107       H  0.59396412  0.52485094  0.20862942     0.35850
H1108       H  0.58969964  0.54063715  0.16451061     0.40950
H1109       H  0.57134791  0.39735910  0.09339462     0.40570
H1110       H  0.54204332  0.42305219  0.08110036     0.35450
C1111       C  0.71600200  0.56700071  0.11074410    -0.26280
C1112       C  0.68441518  0.57068119  0.11523487    -0.14350
C1113       C  0.67460481  0.59822694  0.13440273     0.36280
C1114       C  0.69662092  0.62097516  0.14850034    -0.25720
C1115       C  0.72814334  0.61758077  0.14345877    -0.14960
C1116       C  0.73804509  0.58971158  0.12502371     0.37370
N1117       N  0.77007207  0.58326874  0.12074238    -0.89210
H1118       H  0.72369862  0.54598551  0.09619533     0.18480
H1119       H  0.68878557  0.64221602  0.16246959     0.18470
N1120       N  0.64262802  0.60465271  0.13905947    -0.88240
H1121       H  0.77582780  0.56178034  0.13465611     0.35850
H1122       H  0.78464970  0.60027411  0.13484016     0.40950
H1123       H  0.62789435  0.58728521  0.12606480     0.40570
H1124       H  0.63657952  0.62585908  0.12466310     0.35450
C1125       C  0.71653767  0.35706711  0.84038271    -0.26280
C1126       C  0.69696050  0.33232223  0.82588549    -0.14350
C1127       C  0.66482407  0.33796908  0.81860932     0.36280
C1128       C  0.65319174  0.36846434  0.82605584    -0.25720
C1129       C  0.67301407  0.39329792  0.84002665    -0.14960
C1130       C  0.70513483  0.38740423  0.84751365     0.37370
N1131       N  0.72700195  0.41160758  0.86148996    -0.89210
H1132       H  0.74126370  0.35288540  0.84546298     0.18480
H1133       H  0.62859744  0.37298375  0.82025027     0.18470
N1134       N  0.64352255  0.31361316  0.80384936    -0.88240
H1135       H  0.73727481  0.40433022  0.88833744     0.35850
H1136       H  0.71639402  0.43343001  0.86599677     0.40950
H1137       H  0.65482819  0.29201940  0.80007430     0.40570
H1138       H  0.63390379  0.32077669  0.77665419     0.35450
C1139       C  0.61300100  0.50371093  0.97559206    -0.26280
C1140       C  0.64045603  0.50750871  0.00028099    -0.14350
C1141       C  0.66860405  0.49674721  0.98783216     0.36280
C1142       C  0.66887348  0.48282383  0.95134867    -0.25720
C1143       C  0.64150069  0.47892372  0.92691046    -0.14960
C1144       C  0.61312356  0.48940841  0.93916788     0.37370
N1145       N  0.58415551  0.48590846  0.91568211    -0.89210
H1146       H  0.59116588  0.51161362  0.98484859     0.18480
H1147       H  0.69072998  0.47514281  0.94188116     0.18470
N1148       N  0.69689258  0.49894420  0.01260500    -0.88240
H1149       H  0.57013629  0.47093937  0.93024973     0.35850
H1150       H  0.58699313  0.47457298  0.88961528     0.40950
H1151       H  0.71259745  0.51237475  0.99865875     0.40570
H1152       H  0.70593945  0.47597496  0.01664830     0.35450
C1153       C  0.51167958  0.86204452  0.92481280    -0.26280
C1154       C  0.49175741  0.88758109  0.91419186    -0.14350
C1155       C  0.95944093  0.88295267  0.91066147     0.36280
C1156       C  0.94763389  0.85289880  0.91802959    -0.25720
C1157       C  0.96733641  0.82747415  0.92923572    -0.14960
C1158       C  0.49963248  0.83181169  0.93257446     0.37370
N1159       N  0.51983251  0.80576018  0.94422755    -0.89210
H1160       H  0.53647102  0.86584993  0.92749433     0.18480
H1161       H  0.92279165  0.84932980  0.91577245     0.18470
N1162       N  0.93874360  0.90876815  0.89924104    -0.88240
H1163       H  0.54295149  0.81295314  0.94543109     0.35850
H1164       H  0.51671200  0.78814211  0.92290215     0.40950
H1165       H  0.94015815  0.92549149  0.92162344     0.40570
H1166       H  0.91580245  0.90086040  0.89599772     0.35450
C1167       C  0.70347907  0.55054170  0.79107457    -0.26280
C1168       C  0.69549286  0.54994476  0.75122105    -0.14350
C1169       C  0.67409383  0.52687996  0.73504316     0.36280
C1170       C  0.66144182  0.50501467  0.75935167    -0.25720
C1171       C  0.66977191  0.50553975  0.79921412    -0.14960
C1172       C  0.69130905  0.52841406  0.81515493     0.37370
N1173       N  0.70151676  0.52850396  0.85561735    -0.89210
H1174       H  0.71973052  0.56824217  0.80355019     0.18480
H1175       H  0.64540436  0.48708955  0.74695160     0.18470
N1176       N  0.66581904  0.52378591  0.69433293    -0.88240
H1177       H  0.71721440  0.54700658  0.86266918     0.35850
H1178       H  0.71351418  0.50723282  0.86178343     0.40950
H1179       H  0.67810385  0.53953247  0.67867544     0.40570
H1180       H  0.64237467  0.52956044  0.68885224     0.35450
C1181       C  0.89535165  0.71159680  0.82291645    -0.26280
C1182       C  0.86347223  0.71712098  0.81612252    -0.14350
C1183       C  0.84794465  0.73364046  0.84372452     0.36280
C1184       C  0.86489935  0.74531945  0.87714836    -0.25720
C1185       C  0.89704591  0.74098869  0.88340305    -0.14960
C1186       C  0.91238927  0.72346563  0.85633022     0.37370
N1187       N  0.94518526  0.71804607  0.86280382    -0.89210
H1188       H  0.90699516  0.69843184  0.80181814     0.18480
H1189       H  0.85311763  0.75893473  0.89772160     0.18470
N1190       N  0.81497629  0.73813655  0.83795641    -0.88240
H1191       H  0.95290783  0.70490759  0.84011637     0.35850
H1192       H  0.94926363  0.70403774  0.88739841     0.40950
H1193       H  0.81030942  0.75402130  0.81524255     0.40570
H1194       H  0.80697975  0.74910768  0.86200676     0.35450
C1195       C  0.64149166  0.81402038  0.57255001    -0.26280
C1196       C  0.64712897  0.84313914  0.59199784    -0.14350
C1197       C  0.66470244  0.84355535  0.62817263     0.36280
C1198       C  0.67760428  0.81500699  0.64316238    -0.25720
C1199       C  0.67363511  0.78618434  0.62257253    -0.14960
C1200       C  0.65455236  0.78562893  0.58732786     0.37370
N1201       N  0.64973193  0.75722044  0.56458667    -0.89210
H1202       H  0.62817739  0.81365951  0.54460595     0.18480
H1203       H  0.69202882  0.81549048  0.67032208     0.18470
N1204       N  0.67084201  0.87314934  0.64850398    -0.88240
H1205       H  0.63805381  0.74066864  0.57992594     0.35850
H1206       H  0.67123858  0.74786852  0.55933285     0.40950
H1207       H  0.68438711  0.88718517  0.63216556     0.40570
H1208       H  0.68401650  0.86924373  0.67476153     0.35450
loop_ 
_geom_bond_atom_site_label_1 
_geom_bond_atom_site_label_2 
_geom_bond_distance 
_geom_bond_site_symmetry_2 
_ccdc_geom_bond_type 
N1            N2   1.322       .  A
N1            C5   1.347       .  A
N1           Cu9   2.074       .  S
N2            C3   1.341       .  A
N2           Cu8   2.068       .  S
C3            C4   1.383       .  A
C3            H6   1.082       .  S
C4            C5   1.386       .  A
C4          C595   1.480       .  S
C5            H7   1.080       .  S
Cu8          N11   2.067       .  S
Cu9          N19   2.074       .  S
Cu10         N12   2.065       .  S
Cu10         N18   2.066       .  S
N11          N12   1.320       .  A
N11          C15   1.343       .  A
N12          C13   1.345       .  A
C13          C14   1.382       .  A
C13          H16   1.082       .  S
C14          C15   1.383       .  A
C14         C578   1.472       .  S
C15          H17   1.082       .  S
N18          N19   1.322       .  A
N18          C22   1.340       .  A
N19          C20   1.347       .  A
C20          C21   1.385       .  A
C20          H23   1.082       .  S
C21          C22   1.382       .  A
C21         C564   1.476       .  S
C22          H24   1.082       .  S
C25          C26   1.409       .  A
C25          C30   1.402       .  A
C25         C581   1.483       .  S
C26          C27   1.411       .  A
C26          H31   1.081       .  S
C27          C28   1.413       .  A
C27         C105   1.502   1_556  S
C28          C29   1.397       .  A
C28          H32   1.081       .  S
C29          C30   1.395       .  A
C29         C553   1.474       .  S
C30          H33   1.084       .  S
C34          C35   1.402       .  A
C34          C39   1.403       .  A
C34         C567   1.482       .  S
C35          C36   1.398       .  A
C35          H40   1.084       .  S
C36          C37   1.404       .  A
C36         C539   1.476       .  S
C37          C38   1.405       .  A
C37          H41   1.084       .  S
C38          C39   1.404       .  A
C38         C525   1.476       .  S
C39          H42   1.084       .  S
C43          C44   1.413       .  A
C43          C48   1.416       .  A
C43         C497   1.514       .  S
C44          C45   1.398       .  A
C44          H49   1.079       .  S
C45          C46   1.401       .  A
C45         C536   1.490       .  S
C46          C47   1.403       .  A
C46          H50   1.084       .  S
C47          C48   1.411       .  A
C47         C508   1.487       .  S
C48          H51   1.079       .  S
C52          C53   1.405       .  A
C52          C57   1.400       .  A
C52         C466   1.477       .  S
C53          C54   1.410       .  A
C53          H58   1.084       .  S
C54          C55   1.408       .  A
C54         C511   1.489       .  S
C55          C56   1.403       .  A
C55          H59   1.084       .  S
C56          C57   1.397       .  A
C56         C480   1.477       .  S
C57          H60   1.085       .  S
N61          N62   1.321       .  A
N61          C65   1.350       .  A
N61         Cu69   2.083       .  S
N62          C63   1.338       .  A
N62         Cu68   2.060       .  S
C63          C64   1.383       .  A
C63          H66   1.081       .  S
C64          C65   1.389       .  A
C64         C455   1.485       .  S
C65          H67   1.082       .  S
Cu68         N71   2.059       .  S
Cu69         N79   2.084       .  S
Cu70         N72   2.065       .  S
Cu70         N78   2.066       .  S
N71          N72   1.319       .  A
N71          C75   1.341       .  A
N72          C73   1.346       .  A
C73          C74   1.384       .  A
C73          H76   1.082       .  S
C74          C75   1.382       .  A
C74         C441   1.471       .  S
C75          H77   1.082       .  S
N78          N79   1.323       .  A
N78          C82   1.340       .  A
N79          C80   1.347       .  A
C80          C81   1.388       .  A
C80          H83   1.079       .  S
C81          C82   1.382       .  A
C81         C424   1.483       .  S
C82          H84   1.082       .  S
C85          C86   1.408       .  A
C85          C90   1.402       .  A
C85         C438   1.482       .  S
C86          C87   1.407       .  A
C86          H91   1.083       .  S
C87          C88   1.410       .  A
C87         C718   1.496       .  S
C88          C89   1.399       .  A
C88          H92   1.082       .  S
C89          C90   1.399       .  A
C89         C410   1.486       .  S
C90          H93   1.084       .  S
C94          C95   1.404       .  A
C94          C99   1.404       .  A
C94         C427   1.487       .  S
C95          C96   1.405       .  A
C95         H100   1.084       .  S
C96          C97   1.406       .  A
C96         C483   1.493       .  S
C97          C98   1.405       .  A
C97         H101   1.083       .  S
C98          C99   1.404       .  A
C98         C399   1.484       .  S
C99         H102   1.083       .  S
C103        C104   1.396       .  A
C103        C108   1.396       .  A
C103        C382   1.481       .  S
C104        C105   1.408       .  A
C104        H109   1.080       .  S
C105        C106   1.413       .  A
C106        C107   1.411       .  A
C106        H110   1.081       .  S
C107        C108   1.407       .  A
C107        C469   1.486       .  S
C108        H111   1.083       .  S
C112        C113   1.391       .  A
C112        C117   1.394       .  A
C112        C368   1.482       .  S
C113        C114   1.406       .  A
C113        H722   1.080       .  S
C114        C115   1.414       .  A
C114        C691   1.496   1_455  S
C115        C116   1.417       .  A
C115        H119   1.081       .  S
C116        C117   1.411       .  A
C116        C494   1.506       .  S
C117        H120   1.080       .  S
H118        C717   1.080       .  S
N121        N122   1.322       .  A
N121        C125   1.346       .  A
N121       Cu129   2.072   1_565  S
N122        C123   1.342       .  A
N122       Cu732   2.069       .  S
C123        C124   1.382       .  A
C123        H730   1.082       .  S
C124        C125   1.385       .  A
C124        C385   1.478       .  S
C125        H127   1.082       .  S
H126        C727   1.082       .  S
Cu128       N131   2.068       .  S
Cu128       N726   2.069   1_455  S
Cu129       N139   2.073       .  S
Cu130       N132   2.069       .  S
Cu130       N742   2.071   1_455  S
N131        N132   1.321   1_565  A
N131        C135   1.343       .  A
N132        C133   1.346       .  A
C133        C134   1.383   1_545  A
C133        H136   1.082       .  S
C134        C135   1.384       .  A
C134        C354   1.476       .  S
C135        H137   1.082       .  S
N138        N139   1.322       .  A
N138        C142   1.341       .  A
N138       Cu734   2.071       .  S
N139        C140   1.346       .  A
C140        C141   1.385       .  A
C140        H143   1.082       .  S
C141        C142   1.384       .  A
C141        C343   1.481       .  S
C142        H748   1.082       .  S
H144        C746   1.082   1_455  S
C145        C146   1.405       .  A
C145        C150   1.400       .  A
C145        C357   1.478       .  S
C146        C147   1.408       .  A
C146        H151   1.082       .  S
C147        C148   1.412       .  A
C147        C225   1.499       .  S
C148        C149   1.402       .  A
C148        H152   1.080       .  S
C149        C150   1.402       .  A
C149        C396   1.490       .  S
C150        H153   1.084       .  S
C154        C155   1.401       .  A
C154        C159   1.407       .  A
C154        C340   1.488       .  S
C155        C156   1.399       .  A
C155        H160   1.084       .  S
C156        C157   1.404       .  A
C156        C413   1.484       .  S
C157        C158   1.413       .  A
C157        H161   1.082       .  S
C158        C159   1.412       .  A
C158        C326   1.509       .  S
C159        H162   1.079       .  S
C163        C164   1.400       .  A
C163        C168   1.400       .  A
C163        C298   1.478       .  S
C164        C165   1.408       .  A
C164        H169   1.081       .  S
C165        C166   1.414       .  A
C165        C329   1.509       .  S
C166        C167   1.410       .  A
C166        H170   1.081       .  S
C167        C168   1.406       .  A
C167        C312   1.491       .  S
C168        H171   1.084       .  S
C172        C173   1.403       .  A
C172        C177   1.398   1_545  A
C172        C273   1.474   1_545  S
C173        C174   1.409   1_455  A
C173        H178   1.084       .  S
C174        C175   1.410       .  A
C174        C919   1.490       .  S
C175        C176   1.404   1_655  A
C175        H783   1.083       .  S
C176        C177   1.396   1_545  A
C176        C287   1.476   1_545  S
C177        H180   1.085       .  S
H179        C779   1.083       .  S
C181        C182   1.397       .  A
C181        C186   1.400       .  A
C181        C860   1.472   1_465  S
C182        C183   1.401       .  A
C182        H187   1.085   1_455  S
C183        C184   1.405       .  A
C183        C550   1.474   1_455  S
C184        C185   1.407       .  A
C184        H188   1.083       .  S
C185        C186   1.402       .  A
C185        C284   1.483       .  S
C186        H189   1.085   1_565  S
N190        N191   1.322       .  A
N190        C194   1.346       .  A
N190       Cu198   2.069       .  S
N191        C192   1.342       .  A
N191       Cu197   2.067       .  S
C192        C193   1.382       .  A
C192        H195   1.082       .  S
C193        C194   1.382       .  A
C193        C371   1.474       .  S
C194        H196   1.082       .  S
Cu197       N200   2.067       .  S
Cu198       N208   2.070       .  S
Cu199       N201   2.065       .  S
Cu199       N207   2.066       .  S
N200        N201   1.318       .  A
N200        C204   1.339   1_554  A
N201        C202   1.346   1_554  A
C202        C203   1.392       .  A
C202        H205   1.077       .  S
C203        C204   1.390       .  A
C203        C245   1.495       .  S
C204        H206   1.082       .  S
N207        N208   1.322       .  A
N207        C211   1.340       .  A
N208        C209   1.345       .  A
C209        C210   1.387       .  A
C209        H212   1.081       .  S
C210        C211   1.385       .  A
C210        C259   1.484   1_554  S
C211        H213   1.081   1_554  S
C214        C215   1.406       .  A
C214        C219   1.413       .  A
C214        C242   1.488       .  S
C215        C216   1.393       .  A
C215        H220   1.083       .  S
C216        C217   1.392       .  A
C216        C522   1.477       .  S
C217        C218   1.412       .  A
C217        H221   1.082       .  S
C218        C219   1.409       .  A
C218        C236   1.498       .  S
C219        H222   1.083       .  S
C223        C224   1.398       .  A
C223        C228   1.398       .  A
C223        C592   1.479       .  S
C224        C225   1.408       .  A
C224        H229   1.081       .  S
C225        C226   1.411       .  A
C226        C227   1.405       .  A
C226        H230   1.082       .  S
C227        C228   1.403       .  A
C227        C270   1.475       .  S
C228        H231   1.084       .  S
C232        C233   1.399       .  A
C232        C237   1.394       .  A
C232        C452   1.486       .  S
C233        C234   1.411       .  A
C233        H238   1.084       .  S
C234        C235   1.414       .  A
C234        C301   1.486       .  S
C235        C236   1.411       .  A
C235        H239   1.083       .  S
C236        C237   1.403       .  A
C237        H240   1.083       .  S
C241        C242   1.402       .  A
C241        C246   1.402       .  A
C241        H248   1.084       .  S
C242        C243   1.414       .  A
C243        C244   1.400       .  A
C243        N250   1.439       .  S
C244        C245   1.405       .  A
C244        H249   1.082       .  S
C245        C246   1.422       .  A
C246        N247   1.430       .  S
N247        H251   1.044       .  S
N247        H252   1.045       .  S
N250        H253   1.046       .  S
N250        H254   1.045       .  S
C255        C860   1.402   1_455  A
C255        C864   1.408   1_456  A
C255        H262   1.084   1_545  S
C256        C257   1.415       .  A
C256        C859   1.402       .  A
C256        C785   1.472   1_545  S
C257        C258   1.393       .  A
C257        N264   1.440       .  S
C258        C259   1.404       .  A
C258        H263   1.082       .  S
C259        C260   1.414   1_556  A
C260        C859   1.408   1_554  A
C260        N865   1.437       .  S
N261        C864   1.437   1_455  S
N261        H265   1.046       .  S
N261        H266   1.046   1_455  S
N264        H267   1.042   1_545  S
N264        H268   1.045       .  S
C269        C270   1.402       .  A
C269        C274   1.402       .  A
C269        H276   1.084       .  S
C270        C271   1.416       .  A
C271        C272   1.400       .  A
C271        N278   1.439       .  S
C272        C273   1.401       .  A
C272        H277   1.084       .  S
C273        C274   1.415       .  A
C274        N275   1.438   1_565  S
N275        H279   1.045       .  S
N275        H280   1.044       .  S
N278        H281   1.043       .  S
N278        H282   1.045       .  S
C283        C284   1.404       .  A
C283        C288   1.403   1_565  A
C283        H290   1.084       .  S
C284        C285   1.416   1_455  A
C285        C286   1.399       .  A
C285        N292   1.433       .  S
C286        C287   1.401   1_655  A
C286        H291   1.084       .  S
C287        C288   1.416   1_565  A
C288        N289   1.439       .  S
N289        H293   1.046       .  S
N289        H294   1.043       .  S
N292        H295   1.046       .  S
N292        H296   1.043       .  S
C297        C298   1.400       .  A
C297        C302   1.402       .  A
C297        H304   1.084       .  S
C298        C299   1.409       .  A
C299        C300   1.412       .  A
C299        N306   1.437       .  S
C300        C301   1.407       .  A
C300        H305   1.083       .  S
C301        C302   1.412       .  A
C302        N303   1.438       .  S
N303        H307   1.046       .  S
N303        H308   1.045       .  S
N306        H309   1.045       .  S
N306        H310   1.046       .  S
C311        C312   1.405       .  A
C311        C316   1.406       .  A
C311        H318   1.084       .  S
C312        C313   1.412       .  A
C313        C314   1.406       .  A
C313        N320   1.432       .  S
C314        C315   1.405       .  A
C314        H319   1.084       .  S
C315        C316   1.411       .  A
C315        C778   1.490       .  S
C316        N317   1.432       .  S
N317        H321   1.046       .  S
N317        H322   1.045       .  S
N320        H323   1.045       .  S
N320        H324   1.046       .  S
C325        C326   1.407       .  A
C325        C330   1.406       .  A
C325        H332   1.082       .  S
C326        C327   1.421       .  A
C327        C328   1.408       .  A
C327        N334   1.438       .  S
C328        C329   1.408       .  A
C328        H333   1.081       .  S
C329        C330   1.420       .  A
C330        N331   1.438       .  S
N331        H335   1.046       .  S
N331        H336   1.046       .  S
N334        H337   1.046       .  S
N334        H338   1.046       .  S
C339        C340   1.406       .  A
C339        C344   1.402       .  A
C339        H346   1.083       .  S
C340        C341   1.409       .  A
C341        C342   1.405       .  A
C341        N348   1.432       .  S
C342        C343   1.406       .  A
C342        H347   1.083       .  S
C343        C344   1.410       .  A
C344        N345   1.438       .  S
N345        H349   1.046       .  S
N345        H350   1.046       .  S
N348        H351   1.046       .  S
N348        H352   1.045       .  S
C353        C354   1.403       .  A
C353        C358   1.405       .  A
C353        H360   1.084   1_565  S
C354        C355   1.410       .  A
C355        C356   1.400       .  A
C355        N362   1.438       .  S
C356        C357   1.402       .  A
C356        H361   1.084       .  S
C357        C358   1.417       .  A
C358        N359   1.438       .  S
N359        H363   1.046       .  S
N359        H364   1.043       .  S
N362        H365   1.046       .  S
N362        H366   1.046       .  S
C367        C372   1.395       .  A
C367        C972   1.403       .  A
C367        H374   1.084       .  S
C368        C369   1.412       .  A
C368        C971   1.403       .  A
C369        C974   1.408       .  A
C369        N376   1.437       .  S
C370        C371   1.403       .  A
C370        C973   1.408       .  A
C370        H375   1.084       .  S
C371        C372   1.413       .  A
C372        N373   1.433       .  S
N373        H377   1.043       .  S
N373        H378   1.046       .  S
N376        H379   1.045       .  S
N376        H380   1.046       .  S
C381        C382   1.404       .  A
C381        C386   1.402       .  A
C381        H388   1.084       .  S
C382        C383   1.411       .  A
C383        C384   1.397       .  A
C383        N390   1.433       .  S
C384        C385   1.405       .  A
C384        H389   1.084       .  S
C385        C386   1.419       .  A
C386        N387   1.440       .  S
N387        H391   1.046       .  S
N387        H392   1.040       .  S
N390        H393   1.045       .  S
N390        H394   1.044       .  S
C395        C396   1.407       .  A
C395        C400   1.406       .  A
C395        H402   1.084       .  S
C396        C397   1.416       .  A
C397        C398   1.400       .  A
C397        N404   1.439       .  S
C398        C399   1.402       .  A
C398        H403   1.084       .  S
C399        C400   1.417       .  A
C400        N401   1.438       .  S
N401        H405   1.046       .  S
N401        H406   1.043       .  S
N404        H407   1.046       .  S
N404        H408   1.046       .  S
C409        C410   1.404       .  A
C409        C414   1.404       .  A
C409        H416   1.084       .  S
C410        C411   1.415       .  A
C411        C412   1.402       .  A
C411        N418   1.439       .  S
C412        C413   1.402       .  A
C412        H417   1.084       .  S
C413        C414   1.419       .  A
C414        N415   1.439       .  S
N415        H419   1.046       .  S
N415        H420   1.043       .  S
N418        H421   1.046       .  S
N418        H422   1.046       .  S
C423        C424   1.405       .  A
C423        C428   1.405       .  A
C423        H430   1.084       .  S
C424        C425   1.416       .  A
C425        C426   1.398       .  A
C425        N432   1.432       .  S
C426        C427   1.404       .  A
C426        H431   1.084       .  S
C427        C428   1.414       .  A
C428        N429   1.438       .  S
N429        H433   1.046       .  S
N429        H434   1.046       .  S
N432        H435   1.045       .  S
N432        H436   1.043       .  S
C437        C438   1.406       .  A
C437       C1046   1.403       .  A
C437        H444   1.084       .  S
C438       C1043   1.412       .  A
C439        C440   1.401       .  A
C439       C1042   1.412       .  A
C439        N446   1.439       .  S
C440        C441   1.401       .  A
C440        H445   1.084       .  S
C441        C442   1.414       .  A
C442       C1041   1.403   1_455  A
C442       N1047   1.438   1_455  S
N443       C1046   1.438       .  S
N443        H447   1.045       .  S
N443       H1052   1.043       .  S
N446        H449   1.046       .  S
N446        H450   1.046       .  S
H448       N1047   1.043   1_455  S
C451        C452   1.403       .  A
C451        C456   1.392       .  A
C451        H458   1.085       .  S
C452        C453   1.411       .  A
C453        C454   1.414       .  A
C453        N460   1.437       .  S
C454        C455   1.409       .  A
C454        H459   1.083       .  S
C455        C456   1.410       .  A
C456        N457   1.433       .  S
N457        H461   1.046       .  S
N457        H462   1.046       .  S
N460        H463   1.045       .  S
N460        H464   1.046       .  S
C465        C466   1.403       .  A
C465        C470   1.409       .  A
C465        H472   1.084       .  S
C466        C467   1.415       .  A
C467        C468   1.399       .  A
C467        N474   1.439       .  S
C468        C469   1.404       .  A
C468        H473   1.084       .  S
C469        C470   1.412       .  A
C470        N471   1.437       .  S
N471        H475   1.046       .  S
N471        H476   1.046       .  S
N474        H477   1.044       .  S
N474        H478   1.046       .  S
C479        C480   1.401       .  A
C479        C484   1.402       .  A
C479        H486   1.084       .  S
C480        C481   1.415       .  A
C481        C482   1.403       .  A
C481        N488   1.438       .  S
C482        C483   1.407       .  A
C482        H487   1.084       .  S
C483        C484   1.414       .  A
C484        N485   1.432       .  S
N485        H489   1.046       .  S
N485        H490   1.046       .  S
N488        H491   1.043       .  S
N488        H492   1.046       .  S
C493        C494   1.411       .  A
C493        C498   1.417       .  A
C493        H500   1.082       .  S
C494        C495   1.413       .  A
C495        C496   1.393       .  A
C495        N502   1.434       .  S
C496        C497   1.409       .  A
C496        H501   1.080       .  S
C497        C498   1.422       .  A
C498        N499   1.437       .  S
N499        H503   1.046       .  S
N499        H504   1.046       .  S
N502        H505   1.046       .  S
N502        H506   1.046       .  S
C507        C508   1.405       .  A
C507        C512   1.405       .  A
C507        H514   1.084       .  S
C508        C509   1.419       .  A
C509        C510   1.403       .  A
C509        N516   1.440       .  S
C510        C511   1.405       .  A
C510        H515   1.084       .  S
C511        C512   1.419       .  A
C512        N513   1.439       .  S
N513        H517   1.046       .  S
N513        H518   1.042       .  S
N516        H519   1.042       .  S
N516        H520   1.046       .  S
C521        C522   1.402       .  A
C521        C526   1.395       .  A
C521        H528   1.085       .  S
C522        C523   1.413       .  A
C523        C524   1.407       .  A
C523        N530   1.437       .  S
C524        C525   1.406       .  A
C524        H529   1.084       .  S
C525        C526   1.415       .  A
C526        N527   1.440       .  S
N527        H531   1.045       .  S
N527        H532   1.043       .  S
N530        H533   1.044       .  S
N530        H534   1.045       .  S
C535        C536   1.408   1_556  A
C535        C540   1.405       .  A
C535        H542   1.084       .  S
C536        C537   1.411   1_554  A
C537        C538   1.401       .  A
C537        N544   1.433   1_556  S
C538        C539   1.401       .  A
C538        H543   1.085       .  S
C539        C540   1.414       .  A
C540        N541   1.438       .  S
N541        H545   1.046       .  S
N541        H546   1.044       .  S
N544        H547   1.046   1_554  S
N544        H548   1.046       .  S
C549        C550   1.405   1_455  A
C549        C554   1.412   1_455  A
C549        H556   1.083       .  S
C550       C1155   1.410       .  A
C551        C552   1.398       .  A
C551       C1154   1.410       .  A
C551        N558   1.439       .  S
C552        C553   1.400       .  A
C552        H557   1.084       .  S
C553       C1158   1.408       .  A
C554       C1157   1.408       .  A
C554        N555   1.436   1_655  S
N555        H559   1.046       .  S
N555        H560   1.046       .  S
N558        H561   1.045       .  S
N558        H562   1.046       .  S
C563        C564   1.402       .  A
C563        C568   1.398       .  A
C563        H570   1.084       .  S
C564        C565   1.417       .  A
C565        C566   1.405       .  A
C565        N572   1.438       .  S
C566        C567   1.404       .  A
C566        H571   1.084       .  S
C567        C568   1.413       .  A
C568        N569   1.440       .  S
N569        H573   1.046       .  S
N569        H574   1.046       .  S
N572        H575   1.042       .  S
N572        H576   1.045       .  S
C577        C578   1.400       .  A
C577        C582   1.407       .  A
C577        H584   1.084       .  S
C578        C579   1.410       .  A
C579        C580   1.403       .  A
C579        N586   1.438       .  S
C580        C581   1.403       .  A
C580        H585   1.084       .  S
C581        C582   1.414       .  A
C582        N583   1.438       .  S
N583        H587   1.046       .  S
N583        H588   1.045       .  S
N586        H589   1.045       .  S
N586        H590   1.046       .  S
C591        C592   1.404       .  A
C591        C596   1.399       .  A
C591        H598   1.084       .  S
C592        C593   1.410       .  A
C593        C594   1.404       .  A
C593        N600   1.438       .  S
C594        C595   1.405       .  A
C594        H599   1.084       .  S
C595        C596   1.414       .  A
C596        N597   1.432       .  S
N597        H601   1.044       .  S
N597        H602   1.046       .  S
N600        H603   1.046       .  S
N600        H604   1.046       .  S
N605        N606   1.322       .  A
N605        C609   1.347       .  A
N605       Cu613   2.074       .  S
N606        C607   1.341       .  A
N606       Cu612   2.068       .  S
C607        C608   1.383       .  A
C607        H610   1.082       .  S
C608        C609   1.386       .  A
C608       C1199   1.480       .  S
C609        H611   1.080       .  S
Cu612       N615   2.067       .  S
Cu613       N623   2.074       .  S
Cu614       N616   2.065       .  S
Cu614       N622   2.066       .  S
N615        N616   1.320       .  A
N615        C619   1.343       .  A
N616        C617   1.345       .  A
C617        C618   1.382       .  A
C617        H620   1.082       .  S
C618        C619   1.383       .  A
C618       C1182   1.472       .  S
C619        H621   1.082       .  S
N622        N623   1.322       .  A
N622        C626   1.340       .  A
N623        C624   1.347       .  A
C624        C625   1.385       .  A
C624        H627   1.082       .  S
C625        C626   1.382       .  A
C625       C1168   1.476       .  S
C626        H628   1.082       .  S
C629        C630   1.409       .  A
C629        C634   1.402       .  A
C629       C1185   1.483       .  S
C630        C631   1.411       .  A
C630        H635   1.081       .  S
C631        C632   1.413       .  A
C631        C709   1.502   1_556  S
C632        C633   1.397       .  A
C632        H636   1.081       .  S
C633        C634   1.395       .  A
C633       C1157   1.474       .  S
C634        H637   1.084       .  S
C638        C639   1.402       .  A
C638        C643   1.403       .  A
C638       C1171   1.482       .  S
C639        C640   1.398       .  A
C639        H644   1.084       .  S
C640        C641   1.404       .  A
C640       C1143   1.476       .  S
C641        C642   1.405       .  A
C641        H645   1.084       .  S
C642        C643   1.404       .  A
C642       C1129   1.476       .  S
C643        H646   1.084       .  S
C647        C648   1.413       .  A
C647        C652   1.416       .  A
C647       C1101   1.514       .  S
C648        C649   1.398       .  A
C648        H653   1.079       .  S
C649        C650   1.401       .  A
C649       C1140   1.490       .  S
C650        C651   1.403       .  A
C650        H654   1.084       .  S
C651        C652   1.411       .  A
C651       C1112   1.487       .  S
C652        H655   1.079       .  S
C656        C657   1.405       .  A
C656        C661   1.400       .  A
C656       C1070   1.477       .  S
C657        C658   1.410       .  A
C657        H662   1.084       .  S
C658        C659   1.408       .  A
C658       C1115   1.489       .  S
C659        C660   1.403       .  A
C659        H663   1.084       .  S
C660        C661   1.397       .  A
C660       C1084   1.477       .  S
C661        H664   1.085       .  S
N665        N666   1.321       .  A
N665        C669   1.350       .  A
N665       Cu673   2.083       .  S
N666        C667   1.338       .  A
N666       Cu672   2.060       .  S
C667        C668   1.383       .  A
C667        H670   1.081       .  S
C668        C669   1.389       .  A
C668       C1059   1.485       .  S
C669        H671   1.082       .  S
Cu672       N675   2.059       .  S
Cu673       N683   2.084       .  S
Cu674       N676   2.065       .  S
Cu674       N682   2.066       .  S
N675        N676   1.319       .  A
N675        C679   1.341       .  A
N676        C677   1.346       .  A
C677        C678   1.384       .  A
C677        H680   1.082       .  S
C678        C679   1.382       .  A
C678       C1045   1.471       .  S
C679        H681   1.082       .  S
N682        N683   1.323       .  A
N682        C686   1.340       .  A
N683        C684   1.347       .  A
C684        C685   1.388       .  A
C684        H687   1.079       .  S
C685        C686   1.382       .  A
C685       C1028   1.483       .  S
C686        H688   1.082       .  S
C689        C690   1.408   1_655  A
C689        C694   1.402       .  A
C689       C1042   1.482   1_655  S
C690        C691   1.407   1_455  A
C690        H695   1.083       .  S
C691        C692   1.410       .  A
C692        C693   1.399       .  A
C692        H696   1.082       .  S
C693        C694   1.399       .  A
C693       C1014   1.486       .  S
C694        H697   1.084       .  S
C698        C699   1.404       .  A
C698        C703   1.404       .  A
C698       C1031   1.487       .  S
C699        C700   1.405       .  A
C699        H704   1.084       .  S
C700        C701   1.406       .  A
C700       C1087   1.493       .  S
C701        C702   1.405       .  A
C701        H705   1.083       .  S
C702        C703   1.404       .  A
C702       C1003   1.484       .  S
C703        H706   1.083       .  S
C707        C708   1.396       .  A
C707        C712   1.396       .  A
C707        C986   1.481       .  S
C708        C709   1.408       .  A
C708        H713   1.080       .  S
C709        C710   1.413       .  A
C710        C711   1.411       .  A
C710        H714   1.081       .  S
C711        C712   1.407       .  A
C711       C1073   1.486       .  S
C712        H715   1.083       .  S
C716        C717   1.391       .  A
C716        C721   1.394       .  A
C716        C972   1.482       .  S
C717        C718   1.406       .  A
C718        C719   1.414       .  A
C719        C720   1.417       .  A
C719        H723   1.081       .  S
C720        C721   1.411       .  A
C720       C1098   1.506       .  S
C721        H724   1.080       .  S
N725        N726   1.322       .  A
N725        C729   1.346       .  A
N725       Cu733   2.072   1_565  S
N726        C727   1.342       .  A
C727        C728   1.382       .  A
C728        C729   1.385       .  A
C728        C989   1.478       .  S
C729        H731   1.082       .  S
Cu732       N735   2.068       .  S
Cu733       N743   2.073       .  S
Cu734       N736   2.069       .  S
N735        N736   1.321   1_565  A
N735        C739   1.343       .  A
N736        C737   1.346       .  A
C737        C738   1.383   1_545  A
C737        H740   1.082       .  S
C738        C739   1.384       .  A
C738        C958   1.476       .  S
C739        H741   1.082       .  S
N742        N743   1.322       .  A
N742        C746   1.341       .  A
N743        C744   1.346       .  A
C744        C745   1.385       .  A
C744        H747   1.082       .  S
C745        C746   1.384       .  A
C745        C947   1.481       .  S
C749        C750   1.405       .  A
C749        C754   1.400       .  A
C749        C961   1.478       .  S
C750        C751   1.408       .  A
C750        H755   1.082       .  S
C751        C752   1.412       .  A
C751        C829   1.499       .  S
C752        C753   1.402       .  A
C752        H756   1.080       .  S
C753        C754   1.402       .  A
C753       C1000   1.490       .  S
C754        H757   1.084       .  S
C758        C759   1.401       .  A
C758        C763   1.407       .  A
C758        C944   1.488       .  S
C759        C760   1.399       .  A
C759        H764   1.084       .  S
C760        C761   1.404       .  A
C760       C1017   1.484       .  S
C761        C762   1.413       .  A
C761        H765   1.082       .  S
C762        C763   1.412       .  A
C762        C930   1.509       .  S
C763        H766   1.079       .  S
C767        C768   1.400       .  A
C767        C772   1.400       .  A
C767        C902   1.478       .  S
C768        C769   1.408       .  A
C768        H773   1.081       .  S
C769        C770   1.414       .  A
C769        C933   1.509       .  S
C770        C771   1.410       .  A
C770        H774   1.081       .  S
C771        C772   1.406       .  A
C771        C916   1.491       .  S
C772        H775   1.084       .  S
C776        C777   1.403       .  A
C776        C781   1.398   1_545  A
C776        C877   1.474   1_545  S
C777        C778   1.409       .  A
C777        H782   1.084       .  S
C778        C779   1.410       .  A
C779        C780   1.404       .  A
C780        C781   1.396   1_545  A
C780        C891   1.476   1_545  S
C781        H784   1.085       .  S
C785        C786   1.397       .  A
C785        C790   1.400       .  A
C786        C787   1.401       .  A
C786        H791   1.085       .  S
C787        C788   1.405       .  A
C787       C1154   1.474       .  S
C788        C789   1.407       .  A
C788        H792   1.083       .  S
C789        C790   1.402       .  A
C789        C888   1.483       .  S
C790        H793   1.085   1_565  S
N794        N795   1.322       .  A
N794        C798   1.346       .  A
N794       Cu802   2.069       .  S
N795        C796   1.342       .  A
N795       Cu801   2.067       .  S
C796        C797   1.382       .  A
C796        H799   1.082       .  S
C797        C798   1.382       .  A
C797        C975   1.474       .  S
C798        H800   1.082   1_655  S
Cu801       N804   2.067       .  S
Cu802       N812   2.070       .  S
Cu803       N805   2.065       .  S
Cu803       N811   2.066       .  S
N804        N805   1.318       .  A
N804        C808   1.339   1_554  A
N805        C806   1.346   1_554  A
C806        C807   1.392       .  A
C806        H809   1.077       .  S
C807        C808   1.390       .  A
C807        C849   1.495       .  S
C808        H810   1.082       .  S
N811        N812   1.322       .  A
N811        C815   1.340       .  A
N812        C813   1.345       .  A
C813        C814   1.387       .  A
C813        H816   1.081       .  S
C814        C815   1.385       .  A
C814        C863   1.484   1_554  S
C815        H817   1.081   1_554  S
C818        C819   1.406       .  A
C818        C823   1.413       .  A
C818        C846   1.488       .  S
C819        C820   1.393       .  A
C819        H824   1.083       .  S
C820        C821   1.392       .  A
C820       C1126   1.477       .  S
C821        C822   1.412       .  A
C821        H825   1.082       .  S
C822        C823   1.409       .  A
C822        C840   1.498       .  S
C823        H826   1.083       .  S
C827        C828   1.398       .  A
C827        C832   1.398       .  A
C827       C1196   1.479       .  S
C828        C829   1.408       .  A
C828        H833   1.081       .  S
C829        C830   1.411       .  A
C830        C831   1.405       .  A
C830        H834   1.082       .  S
C831        C832   1.403       .  A
C831        C874   1.475       .  S
C832        H835   1.084       .  S
C836        C837   1.399       .  A
C836        C841   1.394       .  A
C836       C1056   1.486       .  S
C837        C838   1.411       .  A
C837        H842   1.084       .  S
C838        C839   1.414       .  A
C838        C905   1.486       .  S
C839        C840   1.411       .  A
C839        H843   1.083       .  S
C840        C841   1.403       .  A
C841        H844   1.083       .  S
C845        C846   1.402       .  A
C845        C850   1.402       .  A
C845        H852   1.084       .  S
C846        C847   1.414       .  A
C847        C848   1.400       .  A
C847        N854   1.439       .  S
C848        C849   1.405       .  A
C848        H853   1.082       .  S
C849        C850   1.422       .  A
C850        N851   1.430       .  S
N851        H855   1.044       .  S
N851        H856   1.045       .  S
N854        H857   1.046       .  S
N854        H858   1.045       .  S
C859        H866   1.084   1_545  S
C860        C861   1.415       .  A
C861        C862   1.393       .  A
C861        N868   1.440       .  S
C862        C863   1.404       .  A
C862        H867   1.082       .  S
C863        C864   1.414   1_556  A
N865        H869   1.046       .  S
N865        H870   1.046       .  S
N868        H871   1.042   1_545  S
N868        H872   1.045       .  S
C873        C874   1.402       .  A
C873        C878   1.402       .  A
C873        H880   1.084       .  S
C874        C875   1.416       .  A
C875        C876   1.400       .  A
C875        N882   1.439       .  S
C876        C877   1.401       .  A
C876        H881   1.084       .  S
C877        C878   1.415       .  A
C878        N879   1.438   1_565  S
N879        H883   1.045       .  S
N879        H884   1.044       .  S
N882        H885   1.043       .  S
N882        H886   1.045       .  S
C887        C888   1.404       .  A
C887        C892   1.403   1_565  A
C887        H894   1.084       .  S
C888        C889   1.416       .  A
C889        C890   1.399       .  A
C889        N896   1.433       .  S
C890        C891   1.401       .  A
C890        H895   1.084       .  S
C891        C892   1.416   1_565  A
C892        N893   1.439       .  S
N893        H897   1.046       .  S
N893        H898   1.043       .  S
N896        H899   1.046       .  S
N896        H900   1.043       .  S
C901        C902   1.400       .  A
C901        C906   1.402       .  A
C901        H908   1.084       .  S
C902        C903   1.409       .  A
C903        C904   1.412       .  A
C903        N910   1.437       .  S
C904        C905   1.407       .  A
C904        H909   1.083       .  S
C905        C906   1.412       .  A
C906        N907   1.438       .  S
N907        H911   1.046       .  S
N907        H912   1.045       .  S
N910        H913   1.045       .  S
N910        H914   1.046       .  S
C915        C916   1.405       .  A
C915        C920   1.406       .  A
C915        H922   1.084       .  S
C916        C917   1.412       .  A
C917        C918   1.406       .  A
C917        N924   1.432       .  S
C918        C919   1.405       .  A
C918        H923   1.084   1_655  S
C919        C920   1.411       .  A
C920        N921   1.432       .  S
N921        H925   1.046       .  S
N921        H926   1.045       .  S
N924        H927   1.045       .  S
N924        H928   1.046       .  S
C929        C930   1.407       .  A
C929        C934   1.406       .  A
C929        H936   1.082       .  S
C930        C931   1.421       .  A
C931        C932   1.408       .  A
C931        N938   1.438       .  S
C932        C933   1.408       .  A
C932        H937   1.081       .  S
C933        C934   1.420       .  A
C934        N935   1.438       .  S
N935        H939   1.046       .  S
N935        H940   1.046       .  S
N938        H941   1.046       .  S
N938        H942   1.046       .  S
C943        C944   1.406       .  A
C943        C948   1.402       .  A
C943        H950   1.083       .  S
C944        C945   1.409       .  A
C945        C946   1.405       .  A
C945        N952   1.432       .  S
C946        C947   1.406       .  A
C946        H951   1.083       .  S
C947        C948   1.410       .  A
C948        N949   1.438       .  S
N949        H953   1.046       .  S
N949        H954   1.046       .  S
N952        H955   1.046       .  S
N952        H956   1.045       .  S
C957        C958   1.403       .  A
C957        C962   1.405       .  A
C957        H964   1.084   1_565  S
C958        C959   1.410       .  A
C959        C960   1.400       .  A
C959        N966   1.438       .  S
C960        C961   1.402       .  A
C960        H965   1.084       .  S
C961        C962   1.417       .  A
C962        N963   1.438       .  S
N963        H967   1.046       .  S
N963        H968   1.043       .  S
N966        H969   1.046       .  S
N966        H970   1.046       .  S
C971        C976   1.395   1_455  A
C971        H978   1.084       .  S
C972        C973   1.412       .  A
C973        N980   1.437       .  S
C974        C975   1.403   1_455  A
C974        H979   1.084       .  S
C975        C976   1.413       .  A
C976        N977   1.433       .  S
N977        H981   1.043       .  S
N977        H982   1.046       .  S
N980        H983   1.045       .  S
N980        H984   1.046       .  S
C985        C986   1.404       .  A
C985        C990   1.402       .  A
C985        H992   1.084       .  S
C986        C987   1.411       .  A
C987        C988   1.397       .  A
C987        N994   1.433       .  S
C988        C989   1.405       .  A
C988        H993   1.084       .  S
C989        C990   1.419       .  A
C990        N991   1.440       .  S
N991        H995   1.046       .  S
N991        H996   1.040       .  S
N994        H997   1.045       .  S
N994        H998   1.044       .  S
C999       C1000   1.407       .  A
C999       C1004   1.406       .  A
C999       H1006   1.084       .  S
C1000      C1001   1.416       .  A
C1001      C1002   1.400       .  A
C1001      N1008   1.439       .  S
C1002      C1003   1.402       .  A
C1002      H1007   1.084       .  S
C1003      C1004   1.417       .  A
C1004      N1005   1.438       .  S
N1005      H1009   1.046       .  S
N1005      H1010   1.043       .  S
N1008      H1011   1.046       .  S
N1008      H1012   1.046       .  S
C1013      C1014   1.404       .  A
C1013      C1018   1.404       .  A
C1013      H1020   1.084       .  S
C1014      C1015   1.415       .  A
C1015      C1016   1.402       .  A
C1015      N1022   1.439       .  S
C1016      C1017   1.402       .  A
C1016      H1021   1.084       .  S
C1017      C1018   1.419       .  A
C1018      N1019   1.439       .  S
N1019      H1023   1.046       .  S
N1019      H1024   1.043       .  S
N1022      H1025   1.046   1_655  S
N1022      H1026   1.046       .  S
C1027      C1028   1.405       .  A
C1027      C1032   1.405       .  A
C1027      H1034   1.084       .  S
C1028      C1029   1.416       .  A
C1029      C1030   1.398       .  A
C1029      N1036   1.432       .  S
C1030      C1031   1.404       .  A
C1030      H1035   1.084       .  S
C1031      C1032   1.414       .  A
C1032      N1033   1.438       .  S
N1033      H1037   1.046       .  S
N1033      H1038   1.046       .  S
N1036      H1039   1.045       .  S
N1036      H1040   1.043       .  S
C1041      C1042   1.406   1_655  A
C1041      H1048   1.084       .  S
C1043      C1044   1.401       .  A
C1043      N1050   1.439       .  S
C1044      C1045   1.401       .  A
C1044      H1049   1.084       .  S
C1045      C1046   1.414       .  A
N1047      H1051   1.045       .  S
N1050      H1053   1.046       .  S
N1050      H1054   1.046       .  S
C1055      C1056   1.403       .  A
C1055      C1060   1.392       .  A
C1055      H1062   1.085       .  S
C1056      C1057   1.411       .  A
C1057      C1058   1.414       .  A
C1057      N1064   1.437       .  S
C1058      C1059   1.409       .  A
C1058      H1063   1.083       .  S
C1059      C1060   1.410       .  A
C1060      N1061   1.433       .  S
N1061      H1065   1.046       .  S
N1061      H1066   1.046       .  S
N1064      H1067   1.045       .  S
N1064      H1068   1.046       .  S
C1069      C1070   1.403       .  A
C1069      C1074   1.409       .  A
C1069      H1076   1.084       .  S
C1070      C1071   1.415       .  A
C1071      C1072   1.399       .  A
C1071      N1078   1.439       .  S
C1072      C1073   1.404       .  A
C1072      H1077   1.084       .  S
C1073      C1074   1.412       .  A
C1074      N1075   1.437       .  S
N1075      H1079   1.046       .  S
N1075      H1080   1.046       .  S
N1078      H1081   1.044       .  S
N1078      H1082   1.046       .  S
C1083      C1084   1.401       .  A
C1083      C1088   1.402       .  A
C1083      H1090   1.084       .  S
C1084      C1085   1.415       .  A
C1085      C1086   1.403       .  A
C1085      N1092   1.438       .  S
C1086      C1087   1.407       .  A
C1086      H1091   1.084       .  S
C1087      C1088   1.414       .  A
C1088      N1089   1.432       .  S
N1089      H1093   1.046       .  S
N1089      H1094   1.046       .  S
N1092      H1095   1.043       .  S
N1092      H1096   1.046       .  S
C1097      C1098   1.411       .  A
C1097      C1102   1.417       .  A
C1097      H1104   1.082       .  S
C1098      C1099   1.413       .  A
C1099      C1100   1.393       .  A
C1099      N1106   1.434       .  S
C1100      C1101   1.409       .  A
C1100      H1105   1.080       .  S
C1101      C1102   1.422       .  A
C1102      N1103   1.437       .  S
N1103      H1107   1.046       .  S
N1103      H1108   1.046       .  S
N1106      H1109   1.046       .  S
N1106      H1110   1.046       .  S
C1111      C1112   1.405       .  A
C1111      C1116   1.405       .  A
C1111      H1118   1.084       .  S
C1112      C1113   1.419       .  A
C1113      C1114   1.403       .  A
C1113      N1120   1.440       .  S
C1114      C1115   1.405       .  A
C1114      H1119   1.084       .  S
C1115      C1116   1.419       .  A
C1116      N1117   1.439       .  S
N1117      H1121   1.046       .  S
N1117      H1122   1.042       .  S
N1120      H1123   1.042       .  S
N1120      H1124   1.046       .  S
C1125      C1126   1.402       .  A
C1125      C1130   1.395       .  A
C1125      H1132   1.085       .  S
C1126      C1127   1.413       .  A
C1127      C1128   1.407       .  A
C1127      N1134   1.437       .  S
C1128      C1129   1.406       .  A
C1128      H1133   1.084       .  S
C1129      C1130   1.415       .  A
C1130      N1131   1.440       .  S
N1131      H1135   1.045       .  S
N1131      H1136   1.043       .  S
N1134      H1137   1.044       .  S
N1134      H1138   1.045       .  S
C1139      C1140   1.408   1_556  A
C1139      C1144   1.405       .  A
C1139      H1146   1.084       .  S
C1140      C1141   1.411   1_554  A
C1141      C1142   1.401       .  A
C1141      N1148   1.433   1_556  S
C1142      C1143   1.401       .  A
C1142      H1147   1.085       .  S
C1143      C1144   1.414       .  A
C1144      N1145   1.438       .  S
N1145      H1149   1.046       .  S
N1145      H1150   1.044       .  S
N1148      H1151   1.046   1_554  S
N1148      H1152   1.046       .  S
C1153      C1154   1.405       .  A
C1153      C1158   1.412       .  A
C1153      H1160   1.083       .  S
C1155      C1156   1.398       .  A
C1155      N1162   1.439       .  S
C1156      C1157   1.400       .  A
C1156      H1161   1.084       .  S
C1158      N1159   1.436       .  S
N1159      H1163   1.046       .  S
N1159      H1164   1.046       .  S
N1162      H1165   1.045       .  S
N1162      H1166   1.046       .  S
C1167      C1168   1.402       .  A
C1167      C1172   1.398       .  A
C1167      H1174   1.084       .  S
C1168      C1169   1.417       .  A
C1169      C1170   1.405       .  A
C1169      N1176   1.438       .  S
C1170      C1171   1.404       .  A
C1170      H1175   1.084       .  S
C1171      C1172   1.413       .  A
C1172      N1173   1.440       .  S
N1173      H1177   1.046       .  S
N1173      H1178   1.046       .  S
N1176      H1179   1.042       .  S
N1176      H1180   1.045       .  S
C1181      C1182   1.400       .  A
C1181      C1186   1.407       .  A
C1181      H1188   1.084       .  S
C1182      C1183   1.410       .  A
C1183      C1184   1.403       .  A
C1183      N1190   1.438       .  S
C1184      C1185   1.403       .  A
C1184      H1189   1.084       .  S
C1185      C1186   1.414       .  A
C1186      N1187   1.438       .  S
N1187      H1191   1.046       .  S
N1187      H1192   1.045       .  S
N1190      H1193   1.045       .  S
N1190      H1194   1.046       .  S
C1195      C1196   1.404       .  A
C1195      C1200   1.399       .  A
C1195      H1202   1.084       .  S
C1196      C1197   1.410       .  A
C1197      C1198   1.404       .  A
C1197      N1204   1.438       .  S
C1198      C1199   1.405       .  A
C1198      H1203   1.084       .  S
C1199      C1200   1.414       .  A
C1200      N1201   1.432       .  S
N1201      H1205   1.044       .  S
N1201      H1206   1.046       .  S
N1204      H1207   1.046       .  S
N1204      H1208   1.046       .  S
