geometry optimzed in LAMMPS
_audit_creation_date              2020-12-01 
_audit_creation_method            'lammps2cif' 
_symmetry_space_group_name_H-M    'P1' 
_symmetry_Int_Tables_number       1 
_symmetry_cell_setting            triclinic 
loop_ 
_symmetry_equiv_pos_as_xyz 
  x,y,z 
_cell_length_a                    40.3371699 
_cell_length_b                    40.36854454518545 
_cell_length_c                    68.70713817299226 
_cell_angle_alpha                 89.95698076880905 
_cell_angle_beta                  90.12360564932216 
_cell_angle_gamma                 120.07089497351367 
loop_ 
_atom_site_label 
_atom_site_type_symbol 
_atom_site_fract_x 
_atom_site_fract_y 
_atom_site_fract_z 
_atom_site_charge 
N1          N  0.08579405  0.02668684  0.88972651    -0.25700
N2          N  0.09267575  0.05187491  0.90368595    -0.33600
C3          C  0.12209135  0.08631232  0.89814222     0.02600
C4          C  0.13433424  0.08218823  0.87987305     0.08600
C5          C  0.11070547  0.04406555  0.87515814    -0.04500
H6          H  0.13295771  0.11240918  0.90651825     0.09300
H7          H  0.11019253  0.03041882  0.86152587     0.10500
Cu8        Cu  0.06011472  0.03592917  0.92918582     0.44200
Cu9        Cu  0.03408908  0.47580066  0.88586333     0.42000
Cu10       Cu  0.47360789  0.44393922  0.92938654     0.43900
N11         N  0.02802122  0.00684411  0.95371078    -0.33100
N12         N  0.49825694  0.47882837  0.95367599    -0.27400
C13         C  0.48642502  0.46857966  0.97212967    -0.03500
C14         C  0.01137840  0.99068944  0.98449388     0.08700
C15         C  0.03561061  0.01990900  0.97215811     0.02500
H16         H  0.46312185  0.44086624  0.97643914     0.10200
H17         H  0.05834613  0.04805054  0.97635179     0.09300
N18         N  0.45812396  0.41455759  0.90300440    -0.34600
N19         N  0.48304435  0.42576429  0.88860688    -0.26700
C20         C  0.46647968  0.40323197  0.87308629    -0.02000
C21         C  0.42902666  0.37667480  0.87770769     0.06600
C22         C  0.42452334  0.38466403  0.89687937     0.04700
H23         H  0.48001848  0.40735558  0.85902173     0.09800
H24         H  0.39867610  0.37064451  0.90550835     0.08700
N25         N  0.44627132  0.45839852  0.77226940    -0.25700
N26         N  0.42766128  0.43886691  0.75662621    -0.33600
C27         C  0.39433477  0.40798689  0.76225818     0.02600
C28         C  0.39200160  0.40905895  0.78239854     0.08600
C29         C  0.42526650  0.44137231  0.78811562    -0.04500
H30         H  0.37318368  0.38703721  0.75247578     0.09300
H31         H  0.43396885  0.45142476  0.80286063     0.10500
Cu32       Cu  0.44998165  0.45888417  0.72893364     0.44200
Cu33       Cu  0.98884145  0.52503772  0.76895782     0.42000
Cu34       Cu  0.05214141  0.04896383  0.72915338     0.43900
N35         N  0.47990885  0.48719560  0.70379262    -0.33100
N36         N  0.02051815  0.02213797  0.70404150    -0.27400
C37         C  0.03261764  0.03268294  0.68561741    -0.03500
C38         C  0.99545861  0.50778554  0.67019965     0.08700
C39         C  0.46673023  0.47762473  0.68542740     0.02500
H40         H  0.06080921  0.05560943  0.68166167     0.10200
H41         H  0.43858276  0.45444324  0.68156454     0.09300
N42         N  0.07458867  0.07078762  0.75669626    -0.34600
N43         N  0.05472044  0.05407026  0.77254670    -0.26700
C44         C  0.07617081  0.07121563  0.78830238    -0.02000
C45         C  0.11108125  0.10081553  0.78225049     0.06600
C46         C  0.10939107  0.09982443  0.76206110     0.04700
H47         H  0.06736309  0.06205488  0.80313504     0.09800
H48         H  0.13231958  0.11732827  0.75210046     0.08700
N49         N  0.41404871  0.45023330  0.43499311    -0.25700
N50         N  0.40634964  0.46894975  0.42157413    -0.33600
C51         C  0.37737183  0.47380522  0.42809417     0.02600
C52         C  0.36643543  0.45701331  0.44641523     0.08600
C53         C  0.39022901  0.44232947  0.45010607    -0.04500
H54         H  0.36616321  0.48951350  0.42042457     0.09300
H55         H  0.39186462  0.42905951  0.46348273     0.10500
Cu56       Cu  0.43833454  0.48771969  0.39569612     0.44200
Cu57       Cu  0.96845627  0.45531210  0.43590563     0.42000
Cu58       Cu  0.02658341  0.47370112  0.39481345     0.43900
N59         N  0.47234542  0.98713135  0.37338829    -0.33100
N60         N  0.99999511  0.97362435  0.37209896    -0.27400
C61         C  0.01185927  0.97417033  0.35372677    -0.03500
C62         C  0.98921820  0.98109948  0.34115317     0.08700
C63         C  0.46730346  0.99678310  0.35522586     0.02500
H64         H  0.03549697  0.97003979  0.34980819     0.10200
H65         H  0.44464990  0.00230207  0.35104779     0.09300
N66         N  0.04345967  0.46449056  0.42203694    -0.34600
N67         N  0.02015030  0.45563528  0.43705281    -0.26700
C68         C  0.03693690  0.45074473  0.45281937    -0.02000
C69         C  0.07289394  0.45733711  0.44771336     0.06600
C70         C  0.07628447  0.46617019  0.42799431     0.04700
H71         H  0.02455715  0.44455851  0.46724330     0.09800
H72         H  0.10073333  0.47362043  0.41877020     0.08700
N73         N  0.06459963  0.54451518  0.55176941    -0.25700
N74         N  0.07525386  0.53072168  0.56641734    -0.33600
C75         C  0.10448961  0.52578336  0.56047889     0.02600
C76         C  0.11270260  0.53757336  0.54119182     0.08600
C77         C  0.08684449  0.54925449  0.53630265    -0.04500
H78         H  0.11814680  0.51390909  0.56937671     0.09300
H79         H  0.08323013  0.55878443  0.52214522     0.10500
Cu80       Cu  0.04694107  0.51943656  0.59318165     0.44200
Cu81       Cu  0.01660584  0.55098351  0.55252578     0.42000
Cu82       Cu  0.44774962  0.50331069  0.59604752     0.43900
N83         N  0.01392635  0.51307897  0.61790655    -0.33100
N84         N  0.47709873  0.50000461  0.62065465    -0.27400
C85         C  0.46525648  0.49661259  0.63927869    -0.03500
C86         C  0.99528408  0.50777852  0.64868050     0.08700
C87         C  0.02465637  0.51278543  0.63646955     0.02500
H88         H  0.43809917  0.49342132  0.64372542     0.10200
H89         H  0.05197841  0.51613332  0.64077142     0.09300
N90         N  0.43262697  0.51821065  0.56950754    -0.34600
N91         N  0.45846725  0.53479312  0.55562773    -0.26700
C92         C  0.44218404  0.54154381  0.54023867    -0.02000
C93         C  0.40404496  0.52847425  0.54426052     0.06600
C94         C  0.39876595  0.51365804  0.56305510     0.04700
H95         H  0.45671613  0.55356520  0.52662540     0.09800
H96         H  0.37231627  0.49998948  0.57122521     0.08700
N97         N  0.05427555  0.06628132  0.10129092    -0.25700
N98         N  0.03873650  0.07609174  0.08710890    -0.33600
C99         C  0.03500005  0.10597159  0.09317502     0.02600
C100        C  0.04947527  0.11541325  0.11201160     0.08600
C101        C  0.06142675  0.08969087  0.11652005    -0.04500
H102        H  0.02242874  0.11942681  0.08464502     0.09300
H103        H  0.07291018  0.08703736  0.13030242     0.10500
Cu104      Cu  0.02436511  0.04623979  0.06071363     0.44200
Cu105      Cu  0.05433515  0.51546171  0.09988189     0.42000
Cu106      Cu  0.02009048  0.45163728  0.05907150     0.43900
N107        N  0.01683494  0.01178370  0.03642988    -0.33100
N108        N  0.01578341  0.47934319  0.03413442    -0.27400
C109        C  0.01082918  0.46600006  0.01573798    -0.03500
C110        C  0.01376390  0.49421591  0.00321216     0.08700
C111        C  0.01637480  0.02159061  0.01772126     0.02500
H112        H  0.00710839  0.43843863  0.01171091     0.10200
H113        H  0.01998238  0.04878196  0.01302413     0.09300
N114        N  0.03463439  0.43652939  0.08562714    -0.34600
N115        N  0.04945729  0.46163409  0.09997747    -0.26700
C116        C  0.05696563  0.44538059  0.11510624    -0.02000
C117        C  0.04596463  0.40798421  0.11040328     0.06600
C118        C  0.03175209  0.40312636  0.09151679     0.04700
H119        H  0.06803785  0.45929404  0.12897697     0.09800
H120        H  0.01993703  0.37733802  0.08282539     0.08700
N121        N  0.03231109  0.45360198  0.22062144    -0.25700
N122        N  0.02028736  0.42886215  0.23516699    -0.33600
C123        C  0.01943732  0.39649815  0.22906898     0.02600
C124        C  0.03220110  0.40193652  0.20989146     0.08600
C125        C  0.04018193  0.43841633  0.20521370    -0.04500
H126        H  0.01061805  0.37126386  0.23791121     0.09300
H127        H  0.04982788  0.45251761  0.19127896     0.10500
Cu128      Cu  0.00716014  0.44383079  0.26222319     0.44200
Cu129      Cu  0.01800583  0.99832174  0.22131730     0.42000
Cu130      Cu  0.99607192  0.03328212  0.26418308     0.43900
N131        N  0.99791598  0.46955244  0.28672110    -0.33100
N132        N  0.99413620  0.00135887  0.28887711    -0.27400
C133        C  0.98750665  0.00793268  0.30734776    -0.03500
C134        C  0.99181449  0.98313136  0.31964592     0.08700
C135        C  0.99726565  0.45933620  0.30548075     0.02500
H136        H  0.98132593  0.03007006  0.31159151     0.10200
H137        H  0.00198946  0.43651210  0.31029754     0.09300
N138        N  0.00169852  0.05883737  0.23675897    -0.34600
N139        N  0.00897276  0.04443811  0.22115025    -0.26700
C140        C  0.00808864  0.06337988  0.20530284    -0.02000
C141        C  0.00070861  0.09179544  0.21097807     0.06600
C142        C  0.99669895  0.08824162  0.23110879     0.04700
H143        H  0.01172800  0.05637106  0.19055705     0.09800
H144        H  0.98879184  0.10435575  0.24071350     0.08700
C145        C  0.02154450  0.31905265  0.14172720    -0.09300
C146        C  0.01688994  0.33356663  0.15939208    -0.03200
C147        C  0.01600153  0.31695513  0.17743917    -0.09300
C148        C  0.01553362  0.28158311  0.17775808     0.11700
C149        C  0.01824869  0.26493868  0.15995559    -0.01100
C150        C  0.02158506  0.28388315  0.14190436     0.11500
C151        C  0.02555876  0.26747075  0.12466833    -0.11100
C152        C  0.02599194  0.23308316  0.12497871    -0.11100
C153        C  0.02231053  0.21356858  0.14253216     0.11500
C154        C  0.01845678  0.22966088  0.16025836    -0.01100
C155        C  0.01292210  0.26263731  0.19534728    -0.11200
C156        C  0.01237591  0.22781389  0.19560616    -0.11200
C157        C  0.01527614  0.21083714  0.17832301     0.11700
C158        C  0.01466250  0.17536548  0.17855775    -0.09300
C159        C  0.01896298  0.16052126  0.16090016    -0.03200
C160        C  0.02345693  0.17898730  0.14297912    -0.09300
H161        H  0.02867500  0.28125778  0.11074241     0.08900
H162        H  0.02952066  0.22206913  0.11126611     0.08900
H163        H  0.01106815  0.27445634  0.20915236     0.09100
H164        H  0.00965308  0.21432495  0.20957918     0.09100
H165        H  0.01401200  0.35885533  0.15908956     0.05500
H166        H  0.01936120  0.13391042  0.16111457     0.05500
C167        C  0.18698925  0.17943644  0.81482116    -0.09300
C168        C  0.17368620  0.16087025  0.83272035    -0.03200
C169        C  0.19499623  0.17394128  0.84994287    -0.09300
C170        C  0.23013412  0.20921719  0.84964151     0.11700
C171        C  0.24344293  0.22988189  0.83182545    -0.01100
C172        C  0.22178061  0.21494009  0.81437980     0.11500
C173        C  0.23575691  0.23567341  0.79697836    -0.11100
C174        C  0.27002307  0.27054666  0.79660070    -0.11100
C175        C  0.29215302  0.28577645  0.81352552     0.11500
C176        C  0.27885312  0.26524195  0.83136565    -0.01100
C177        C  0.25264915  0.22406751  0.86648412    -0.11200
C178        C  0.28742112  0.25858234  0.86601306    -0.11200
C179        C  0.30103548  0.27975874  0.84869378     0.11700
C180        C  0.33667651  0.31450498  0.84803777    -0.09300
C181        C  0.34843710  0.33450792  0.83039377    -0.03200
C182        C  0.32700348  0.32121004  0.81318714    -0.09300
H183        H  0.22031955  0.22519714  0.78341442     0.08900
H184        H  0.27904303  0.28544529  0.78283009     0.08900
H185        H  0.24369278  0.20891833  0.88019478     0.09100
H186        H  0.30369639  0.26833686  0.87939242     0.09100
H187        H  0.14560467  0.13540321  0.83333092     0.05500
H188        H  0.37536113  0.36127827  0.83001550     0.05500
C189        C  0.16472124  0.48644894  0.47751288    -0.09300
C190        C  0.15294747  0.49628404  0.49466177    -0.03200
C191        C  0.17416238  0.50583626  0.51199571    -0.09300
C192        C  0.20878672  0.50458817  0.51237460     0.11700
C193        C  0.22208990  0.49563913  0.49503048    -0.01100
C194        C  0.20023699  0.48706843  0.47750307     0.11500
C195        C  0.21099911  0.97012168  0.46236960    -0.11100
C196        C  0.24538276  0.96963709  0.46224336    -0.11100
C197        C  0.27094056  0.48703209  0.47775424     0.11500
C198        C  0.25733092  0.49520559  0.49520607    -0.01100
C199        C  0.23089963  0.51277373  0.52942828    -0.11200
C200        C  0.26504874  0.51175145  0.52967058    -0.11200
C201        C  0.27881161  0.50290774  0.51281655     0.11700
C202        C  0.31382930  0.50235565  0.51291365    -0.06900
C203        C  0.32619513  0.49388539  0.49549407    -0.03200
C204        C  0.30578631  0.48636107  0.47795703    -0.09300
H205        H  0.19442809  0.96239015  0.44905525     0.08900
H206        H  0.25360486  0.96159249  0.44885960     0.08900
H207        H  0.22206470  0.52022172  0.54279666     0.09100
H208        H  0.28085466  0.51845772  0.54321391     0.09100
H209        H  0.12622326  0.49649872  0.49450979     0.05500
H210        H  0.35265473  0.49314277  0.49555644     0.05500
C211        C  0.99298858  0.11517708  0.19710765    -0.14900
C212        C  0.01225744  0.15381532  0.19688521    -0.30100
H213        H  0.46191673  0.10607997  0.18397261     0.14100
H214        H  0.02993568  0.16940702  0.20928697     0.14700
C215        C  0.03689925  0.37662616  0.19597513    -0.14900
C216        C  0.01555812  0.33805768  0.19538398    -0.30100
H217        H  0.05650061  0.39134746  0.18404685     0.14100
H218        H  0.99592307  0.32264186  0.20716358     0.14700
C219        C  0.05025778  0.14356259  0.12609601    -0.14900
C220        C  0.02841183  0.16018991  0.12521403    -0.30100
H221        H  0.06731214  0.14778635  0.13910350     0.14100
H222        H  0.54456892  0.19239234  0.11778868     0.14700
C223        C  0.04732279  0.38074318  0.12442936    -0.14900
C224        C  0.02601542  0.34212437  0.12369798    -0.30100
H225        H  0.06418727  0.39384937  0.13746031     0.14100
H226        H  0.49500006  0.33453677  0.11427486     0.14700
C227        C  0.37668472  0.52810927  0.52959121    -0.14900
C228        C  0.33801674  0.50881921  0.53083555    -0.30100
H229        H  0.38782958  0.03834214  0.51558441     0.14100
H230        H  0.32424283  0.49517539  0.54441796     0.14700
C231        C  0.15755467  0.51516454  0.52934805    -0.14900
C232        C  0.13937607  0.53542471  0.52707220    -0.30100
H233        H  0.15702154  0.50245795  0.54335069     0.14100
H234        H  0.14084394  0.04456380  0.51408995     0.14700
C235        C  0.34021844  0.45815874  0.46118345    -0.14900
C236        C  0.32308851  0.47950372  0.46013047    -0.30100
H237        H  0.33748089  0.44265110  0.47457457     0.14100
H238        H  0.32017526  0.98292802  0.44765955     0.14700
C239        C  0.13933633  0.47750013  0.45991902    -0.14900
C240        C  0.10081750  0.45762995  0.46186939    -0.30100
H241        H  0.14878182  0.98144392  0.44800758     0.14100
H242        H  0.08880915  0.44424081  0.47579304     0.14700
C243        C  0.36213171  0.38318900  0.79615343    -0.14900
C244        C  0.34371553  0.34467580  0.79513111    -0.30100
H245        H  0.36032872  0.39649411  0.80954806     0.14100
H246        H  0.34532685  0.33076061  0.78193667     0.14700
C247        C  0.14409808  0.12232709  0.79528557    -0.14900
C248        C  0.16277332  0.16073526  0.79718474    -0.30100
H249        H  0.14902318  0.10528222  0.80589660     0.14100
H250        H  0.15747718  0.17785400  0.78680149     0.14700
C251        C  0.40077855  0.34990368  0.86342182    -0.14900
C252        C  0.36232705  0.33208039  0.86539335    -0.30100
H253        H  0.41262891  0.34761433  0.84963283     0.14100
H254        H  0.34989225  0.33325139  0.87918676     0.14700
C255        C  0.16187039  0.11094233  0.86602875    -0.14900
C256        C  0.17840534  0.14936057  0.86768795    -0.30100
H257        H  0.16549935  0.09931203  0.85245230     0.14100
H258        H  0.17638049  0.16217201  0.88118615     0.14700
N259        N  0.08057241  0.53101620  0.88563742    -0.25700
N260        N  0.08917353  0.55604648  0.89986603    -0.33600
C261        C  0.11871178  0.59022069  0.89405049     0.02600
C262        C  0.12904824  0.58594525  0.87529833     0.08600
C263        C  0.10423420  0.54810902  0.87060513    -0.04500
H264        H  0.13110647  0.61618726  0.90262375     0.09300
H265        H  0.10234802  0.53435886  0.85680971     0.10500
Cu266      Cu  0.05838808  0.53936985  0.92600928     0.44200
Cu267      Cu  0.03898427  0.97122788  0.88920930     0.42000
Cu268      Cu  0.47616690  0.94128742  0.92908063     0.43900
N269        N  0.02749946  0.50958326  0.95078626    -0.33100
N270        N  0.50061801  0.97864329  0.95289356    -0.27400
C271        C  0.49015485  0.97001798  0.97168725    -0.03500
C272        C  0.01277743  0.49328636  0.98174556     0.08700
C273        C  0.03608880  0.52260354  0.96921622     0.02500
H274        H  0.46820841  0.94224042  0.97678645     0.10200
H275        H  0.05889963  0.55082218  0.97324087     0.09300
N276        N  0.46008079  0.91222118  0.90230728    -0.34600
N277        N  0.48417928  0.92454316  0.88750261    -0.26700
C278        C  0.46713130  0.90243896  0.87189964    -0.02000
C279        C  0.43013607  0.87498909  0.87676592     0.06600
C280        C  0.42648109  0.88197921  0.89627373     0.04700
H281        H  0.47993296  0.90756574  0.85759270     0.09800
H282        H  0.40107669  0.86713499  0.90517399     0.08700
N283        N  0.43784823  0.97276395  0.77006850    -0.25700
N284        N  0.42281256  0.94874797  0.75529096    -0.33600
C285        C  0.39341704  0.91533725  0.76200009     0.02600
C286        C  0.38979986  0.91906378  0.78190438     0.08600
C287        C  0.41832279  0.95583029  0.78633744    -0.04500
H288        H  0.37646574  0.89020488  0.75315723     0.09300
H289        H  0.42562567  0.96874909  0.80064403     0.10500
Cu290      Cu  0.44562276  0.96462328  0.72716026     0.44200
Cu291      Cu  0.00012025  0.00728723  0.77231111     0.42000
Cu292      Cu  0.04491232  0.55361956  0.72567731     0.43900
N293        N  0.47663751  0.98994646  0.70161765    -0.33100
N294        N  0.01356583  0.52331772  0.70097979    -0.27400
C295        C  0.02552298  0.53140756  0.68236522    -0.03500
C296        C  0.00276427  0.01041976  0.67307528     0.08700
C297        C  0.46503187  0.97841478  0.68317362     0.02500
H298        H  0.05363986  0.55386323  0.67797460     0.10200
H299        H  0.43737711  0.95455056  0.67918632     0.09300
N300        N  0.06647324  0.58154926  0.75240423    -0.34600
N301        N  0.04487172  0.57101216  0.76817970    -0.26700
C302        C  0.06642860  0.59085383  0.78352261    -0.02000
C303        C  0.10338359  0.61574405  0.77728158     0.06600
C304        C  0.10249824  0.60868901  0.75742061     0.04700
H305        H  0.05669393  0.58538199  0.79845984     0.09800
H306        H  0.12683784  0.62006981  0.74771062     0.08700
N307        N  0.41196125  0.93984414  0.43707522    -0.25700
N308        N  0.40487589  0.95898815  0.42362225    -0.33600
C309        C  0.37593483  0.96415273  0.42992500     0.02600
C310        C  0.36419820  0.94711813  0.44814777     0.08600
C311        C  0.38764868  0.93198191  0.45200485    -0.04500
H312        H  0.36527066  0.98025183  0.42216944     0.09300
H313        H  0.38859109  0.91828808  0.46536920     0.10500
Cu314      Cu  0.43732664  0.97794208  0.39785296     0.44200
Cu315      Cu  0.96139686  0.93417146  0.43678965     0.42000
Cu316      Cu  0.02477813  0.96539990  0.39707978     0.43900
N317        N  0.47348631  0.49616246  0.37141544    -0.33100
N318        N  0.00064026  0.47963676  0.36975288    -0.27400
C319        C  0.01098527  0.47699615  0.35145048    -0.03500
C320        C  0.98834079  0.48330637  0.33862462     0.08700
C321        C  0.46747003  0.50352766  0.35295857     0.02500
H322        H  0.03365910  0.47122080  0.34775937     0.10200
H323        H  0.44395400  0.50743498  0.34843242     0.09300
N324        N  0.04017256  0.95278771  0.42396303    -0.34600
N325        N  0.01503862  0.93888886  0.43827840    -0.26700
C326        C  0.03183443  0.93411397  0.45408612    -0.02000
C327        C  0.06964704  0.94600063  0.44976435     0.06600
C328        C  0.07408353  0.95777724  0.43044488     0.04700
H329        H  0.01818995  0.92498545  0.46814731     0.09800
H330        H  0.10014586  0.97019341  0.42196965     0.08700
N331        N  0.06761409  0.04434548  0.55383446    -0.25700
N332        N  0.08104816  0.03421461  0.56884942    -0.33600
C333        C  0.11018622  0.02924174  0.56271767     0.02600
C334        C  0.11538549  0.03712190  0.54287071     0.08600
C335        C  0.08795890  0.04670989  0.53791709    -0.04500
H336        H  0.12565398  0.01972659  0.57186246     0.09300
H337        H  0.08181148  0.05286549  0.52345841     0.10500
Cu338      Cu  0.05524734  0.02632718  0.59616707     0.44200
Cu339      Cu  0.01790315  0.04798826  0.55489685     0.42000
Cu340      Cu  0.45001576  0.99582107  0.59281206     0.43900
N341        N  0.02193008  0.01931051  0.62085855    -0.33100
N342        N  0.47902474  0.99578817  0.61810059    -0.27400
C343        C  0.46555831  0.99139636  0.63643088    -0.03500
C344        C  0.00306896  0.01234150  0.65162401     0.08700
C345        C  0.03316057  0.01975013  0.63938859     0.02500
H346        H  0.43691329  0.98499430  0.64017085     0.10200
H347        H  0.06107026  0.02454991  0.64362535     0.09300
N348        N  0.43449307  0.01254202  0.56713481    -0.34600
N349        N  0.46014912  0.03204546  0.55355195    -0.26700
C350        C  0.44303253  0.03987937  0.53893177    -0.02000
C351        C  0.40462429  0.02447748  0.54324284     0.06600
C352        C  0.40003795  0.00713396  0.56130357     0.04700
H353        H  0.45717703  0.05414229  0.52558353     0.09800
H354        H  0.37366456  0.99114153  0.56937856     0.08700
N355        N  0.04835697  0.56377168  0.10028049    -0.25700
N356        N  0.03855895  0.57661306  0.08489614    -0.33600
C357        C  0.03214939  0.60502365  0.09057811     0.02600
C358        C  0.03837229  0.61017372  0.11052107     0.08600
C359        C  0.04818174  0.58325077  0.11607606    -0.04500
H360        H  0.02063456  0.61847634  0.08127357     0.09300
H361        H  0.05209340  0.57638303  0.13082105     0.10500
Cu362      Cu  0.02927823  0.54906086  0.05802978     0.44200
Cu363      Cu  0.06020930  0.01817723  0.10062746     0.42000
Cu364      Cu  0.01899407  0.95073839  0.06182100     0.43900
N365        N  0.02098932  0.51450527  0.03373680    -0.33100
N366        N  0.01293786  0.97715215  0.03693016    -0.27400
C367        C  0.00889869  0.96384271  0.01857941    -0.03500
C368        C  0.01114790  0.99157629  0.00594469     0.08700
C369        C  0.02036536  0.52454083  0.01509349     0.02500
H370        H  0.00661176  0.93682360  0.01466392     0.10200
H371        H  0.02450337  0.55200272  0.01051987     0.09300
N372        N  0.03638688  0.93757445  0.08795898    -0.34600
N373        N  0.05354979  0.96385400  0.10160624    -0.26700
C374        C  0.06178057  0.94835858  0.11680344    -0.02000
C375        C  0.04896797  0.91032268  0.11280262     0.06600
C376        C  0.03287543  0.90423066  0.09432005     0.04700
H377        H  0.07446853  0.96325958  0.13027427     0.09800
H378        H  0.01906788  0.87759730  0.08628944     0.08700
N379        N  0.02355587  0.95009290  0.22148118    -0.25700
N380        N  0.01937957  0.92934517  0.23713386    -0.33600
C381        C  0.02280633  0.89883249  0.23183969     0.02600
C382        C  0.03002119  0.90132044  0.21193261     0.08600
C383        C  0.03050873  0.93423462  0.20603985    -0.04500
H384        H  0.02129356  0.87727027  0.24174026     0.09300
H385        H  0.03523739  0.94570069  0.19142286     0.10500
Cu386      Cu  0.01094031  0.94761651  0.26435182     0.44200
Cu387      Cu  0.03329527  0.50525269  0.22095544     0.42000
Cu388      Cu  0.99666311  0.53112861  0.26144095     0.43900
N389        N  0.00156010  0.97280634  0.28896236    -0.33100
N390        N  0.99199821  0.49904301  0.28615391    -0.27400
C391        C  0.98638548  0.50743850  0.30439798    -0.03500
C392        C  0.98973830  0.48280077  0.31714495     0.08700
C393        C  0.00094343  0.96154336  0.30750098     0.02500
H394        H  0.98204189  0.53099557  0.30817711     0.10200
H395        H  0.00631684  0.93888027  0.31182084     0.09300
N396        N  0.00985700  0.56104120  0.23523382    -0.34600
N397        N  0.02360667  0.55088486  0.22040326    -0.26700
C398        C  0.02654765  0.57230934  0.20487176    -0.02000
C399        C  0.01487553  0.59781449  0.21016195     0.06600
C400        C  0.00423302  0.58991037  0.22953487     0.04700
H401        H  0.03493329  0.56841712  0.19048847     0.09800
H402        H  0.99117091  0.60239959  0.23839136     0.08700
C403        C  0.02514805  0.82177857  0.14404369    -0.09300
C404        C  0.02003735  0.83540900  0.16187228    -0.03200
C405        C  0.02020391  0.81878728  0.17974860    -0.09300
C406        C  0.02158335  0.78432904  0.17965368     0.11700
C407        C  0.02513029  0.76878779  0.16162483    -0.01100
C408        C  0.02696622  0.78761491  0.14378201     0.11500
C409        C  0.03106037  0.77203733  0.12626398    -0.11100
C410        C  0.03321243  0.73858056  0.12610294    -0.11100
C411        C  0.03191240  0.71957058  0.14347898     0.11500
C412        C  0.02759137  0.73472851  0.16146988    -0.01100
C413        C  0.01992402  0.76518980  0.19701800    -0.11200
C414        C  0.02144005  0.73141937  0.19683514    -0.11200
C415        C  0.02565780  0.71589736  0.17931929     0.11700
C416        C  0.02799358  0.68204775  0.17910878    -0.09300
C417        C  0.03445551  0.66913394  0.16138423    -0.03200
C418        C  0.03478758  0.68585933  0.14345962    -0.09300
H419        H  0.03267634  0.78561691  0.11244179     0.08900
H420        H  0.03597822  0.72782997  0.11215138     0.08900
H421        H  0.01729803  0.77608083  0.21096160     0.09100
H422        H  0.01954229  0.71774933  0.21065996     0.09100
H423        H  0.01598805  0.86000626  0.16180588     0.05500
H424        H  0.04027824  0.64570662  0.16167535     0.05500
C425        C  0.18524573  0.68693422  0.81098644    -0.09300
C426        C  0.17174191  0.66671870  0.82848699    -0.03200
C427        C  0.19309296  0.67774719  0.84579336    -0.09300
C428        C  0.22907350  0.71215650  0.84601753     0.11700
C429        C  0.24302153  0.73437892  0.82870368    -0.01100
C430        C  0.22105288  0.72177533  0.81116444     0.11500
C431        C  0.23566162  0.74430332  0.79433233    -0.11100
C432        C  0.27057142  0.77868070  0.79462629    -0.11100
C433        C  0.29293349  0.79167205  0.81165027     0.11500
C434        C  0.27915691  0.76920415  0.82890650    -0.01100
C435        C  0.25171727  0.72469593  0.86295429    -0.11200
C436        C  0.28714762  0.75852908  0.86310737    -0.11200
C437        C  0.30139053  0.78141571  0.84635894     0.11700
C438        C  0.33760589  0.81569235  0.84640603    -0.09300
C439        C  0.34991081  0.83754392  0.82928992    -0.03200
C440        C  0.32838043  0.82675248  0.81201135    -0.09300
H441        H  0.22017671  0.73566588  0.78069514     0.08900
H442        H  0.27982183  0.79498119  0.78126808     0.08900
H443        H  0.24235829  0.70823747  0.87627383     0.09100
H444        H  0.30340534  0.76645668  0.87652906     0.09100
H445        H  0.14309833  0.64207904  0.82885490     0.05500
H446        H  0.37721852  0.86391157  0.82943242     0.05500
C447        C  0.16289096  0.97989815  0.47947576    -0.09300
C448        C  0.15214431  0.99114332  0.49652470    -0.03200
C449        C  0.17434318  0.00190891  0.51357655    -0.09300
C450        C  0.20865143  0.99994092  0.51376715     0.11700
C451        C  0.22077917  0.98938419  0.49648839    -0.01100
C452        C  0.19815697  0.98000791  0.47923044     0.11500
C453        C  0.21411570  0.47855371  0.46061012    -0.11100
C454        C  0.24881303  0.47875069  0.46070576    -0.11100
C455        C  0.26819476  0.97846881  0.47904454     0.11500
C456        C  0.25561625  0.98812072  0.49645900    -0.01100
C457        C  0.23155339  0.00881739  0.53056770    -0.11200
C458        C  0.26523076  0.00689973  0.53063533    -0.11200
C459        C  0.27778979  0.99655861  0.51382950     0.11700
C460        C  0.31239741  0.99534647  0.51371283    -0.06900
C461        C  0.32375302  0.98540022  0.49643618    -0.03200
C462        C  0.30273823  0.97702339  0.47908428    -0.09300
H463        H  0.19813360  0.47141566  0.44711280     0.08900
H464        H  0.25783752  0.47172001  0.44727038     0.08900
H465        H  0.22370719  0.01744961  0.54387528     0.09100
H466        H  0.28166549  0.01409718  0.54399391     0.09100
H467        H  0.12546496  0.99144913  0.49649123     0.05500
H468        H  0.35016453  0.98455028  0.49647870     0.05500
C469        C  0.00768086  0.62115396  0.19621857    -0.14900
C470        C  0.02547621  0.65965543  0.19698899    -0.30100
H471        H  0.45191031  0.60177563  0.18222369     0.14100
H472        H  0.04136358  0.67456073  0.20996012     0.14700
C473        C  0.03832803  0.87750077  0.19868362    -0.14900
C474        C  0.01862057  0.83884105  0.19789280    -0.30100
H475        H  0.05789204  0.89310650  0.18688112     0.14100
H476        H  0.99870793  0.82253392  0.20942311     0.14700
C477        C  0.02557355  0.62954321  0.12434652    -0.14900
C478        C  0.04018358  0.66785484  0.12541117    -0.30100
H479        H  0.00692287  0.61144695  0.13588300     0.14100
H480        H  0.52454152  0.68122634  0.11457679     0.14700
C481        C  0.04991758  0.88346232  0.12712031    -0.14900
C482        C  0.02883207  0.84493205  0.12626996    -0.30100
H483        H  0.06670388  0.89663770  0.14016603     0.14100
H484        H  0.49388181  0.83736851  0.11339851     0.14700
C485        C  0.37611546  0.02361353  0.52927779    -0.14900
C486        C  0.33763978  0.00314522  0.53122216    -0.30100
H487        H  0.38966410  0.54265182  0.51602660     0.14100
H488        H  0.32492574  0.98922650  0.54492710     0.14700
C489        C  0.15908094  0.01311785  0.53089375    -0.14900
C490        C  0.14053263  0.03302722  0.52842074    -0.30100
H491        H  0.15999721  0.00220572  0.54520184     0.14100
H492        H  0.14128475  0.54880425  0.51307271     0.14700
C493        C  0.33760786  0.94849672  0.46272058    -0.14900
C494        C  0.31957263  0.96907975  0.46130295    -0.30100
H495        H  0.33527386  0.93371627  0.47631399     0.14100
H496        H  0.32435985  0.49433439  0.44672653     0.14700
C497        C  0.13669694  0.96973861  0.46216419    -0.14900
C498        C  0.09827516  0.94951030  0.46443468    -0.30100
H499        H  0.15200045  0.49062023  0.44606147     0.14100
H500        H  0.08679493  0.93719919  0.47861261     0.14700
C501        C  0.36460708  0.89103134  0.79673470    -0.14900
C502        C  0.34508136  0.85258021  0.79460535    -0.30100
H503        H  0.36486464  0.90304258  0.81091572     0.14100
H504        H  0.34390829  0.84014037  0.78044701     0.14700
C505        C  0.13709580  0.63332687  0.79042855    -0.14900
C506        C  0.15952614  0.67147375  0.79336675    -0.30100
H507        H  0.14006598  0.61357383  0.80001671     0.14100
H508        H  0.15639641  0.69114821  0.78380017     0.14700
C509        C  0.40158966  0.84876109  0.86229610    -0.14900
C510        C  0.36306605  0.83124033  0.86408274    -0.30100
H511        H  0.41340190  0.84723282  0.84834806     0.14100
H512        H  0.35050830  0.83164595  0.87797150     0.14700
C513        C  0.15640373  0.61420075  0.86121267    -0.14900
C514        C  0.17539010  0.65263039  0.86328063    -0.30100
H515        H  0.15830803  0.60236310  0.84733049     0.14100
H516        H  0.17511228  0.66542787  0.87711920     0.14700
N517        N  0.58297671  0.03066958  0.88665624    -0.25700
N518        N  0.59168380  0.05661390  0.90042931    -0.33600
C519        C  0.62063239  0.09061211  0.89395677     0.02600
C520        C  0.63046249  0.08535498  0.87524164     0.08600
C521        C  0.60597727  0.04704219  0.87129089    -0.04500
H522        H  0.63274373  0.11720465  0.90199573     0.09300
H523        H  0.60369867  0.03247579  0.85771738     0.10500
Cu524      Cu  0.56104828  0.04165044  0.92676076     0.44200
Cu525      Cu  0.53601705  0.47541355  0.88967461     0.42000
Cu526      Cu  0.97305939  0.43918667  0.92664212     0.43900
N527        N  0.52890965  0.01471908  0.95186437    -0.33100
N528        N  0.99909664  0.47351016  0.95113648    -0.27400
C529        C  0.98985061  0.46257832  0.96982281    -0.03500
C530        C  0.51213972  0.00219135  0.98297705     0.08700
C531        C  0.53619820  0.02997948  0.96991361     0.02500
H532        H  0.96796593  0.43433335  0.97438826     0.10200
H533        H  0.55873688  0.05866556  0.97340852     0.09300
N534        N  0.95723675  0.41236238  0.89943844    -0.34600
N535        N  0.98158098  0.42562483  0.88476207    -0.26700
C536        C  0.96504111  0.40422354  0.86890695    -0.02000
C537        C  0.92818307  0.37622333  0.87354160     0.06600
C538        C  0.92397026  0.38218467  0.89310853     0.04700
H539        H  0.97821693  0.40995562  0.85467731     0.09800
H540        H  0.89856911  0.36643392  0.90192029     0.08700
N541        N  0.93736523  0.47303681  0.76936930    -0.25700
N542        N  0.92178549  0.45076110  0.75401668    -0.33600
C543        C  0.89125742  0.41734342  0.75993963     0.02600
C544        C  0.88739180  0.41923614  0.77996252     0.08600
C545        C  0.91700453  0.45496001  0.78526455    -0.04500
H546        H  0.87359485  0.39348363  0.75046838     0.09300
H547        H  0.92430945  0.46633770  0.79988416     0.10500
Cu548      Cu  0.94543285  0.46890895  0.72623805     0.44200
Cu549      Cu  0.50036969  0.50631757  0.77188389     0.42000
Cu550      Cu  0.54285650  0.05196385  0.72529815     0.43900
N551        N  0.97748550  0.49491574  0.70110430    -0.33100
N552        N  0.51191318  0.01979046  0.70118578    -0.27400
C553        C  0.52382667  0.02722245  0.68257959    -0.03500
C554        C  0.49554753  0.50128305  0.67278586     0.08700
C555        C  0.96543900  0.48519586  0.68255726     0.02500
H556        H  0.55146758  0.05032755  0.67802616     0.10200
H557        H  0.93701742  0.46298220  0.67837865     0.09300
N558        N  0.56498302  0.08072310  0.75153892    -0.34600
N559        N  0.54379801  0.07098984  0.76743669    -0.26700
C560        C  0.56589630  0.09088584  0.78259465    -0.02000
C561        C  0.60272668  0.11489541  0.77601790     0.06600
C562        C  0.60129010  0.10736467  0.75623417     0.04700
H563        H  0.55660656  0.08588026  0.79760795     0.09800
H564        H  0.62536472  0.11796947  0.74637996     0.08700
N565        N  0.92140851  0.46336645  0.43528116    -0.25700
N566        N  0.91121641  0.47701944  0.42035208    -0.33600
C567        C  0.88103151  0.48097618  0.42585577     0.02600
C568        C  0.87187525  0.46864593  0.44508756     0.08600
C569        C  0.89812182  0.45779153  0.45035213    -0.04500
H570        H  0.86688660  0.49185441  0.41662183     0.09300
H571        H  0.90084504  0.44754872  0.46448687     0.10500
Cu572      Cu  0.94034847  0.48735497  0.39354983     0.44200
Cu573      Cu  0.46116507  0.44237900  0.43471662     0.42000
Cu574      Cu  0.52669044  0.47941025  0.39610662     0.43900
N575        N  0.97018644  0.97909193  0.37174639    -0.33100
N576        N  0.50153077  0.98070961  0.37313601    -0.27400
C577        C  0.51494875  0.98513415  0.35482565    -0.03500
C578        C  0.49401292  0.99565598  0.34297360     0.08700
C579        C  0.96320301  0.98426341  0.35306277     0.02500
H580        H  0.53819726  0.98075080  0.35042021     0.10200
H581        H  0.93999459  0.98856092  0.34841467     0.09300
N582        N  0.54138658  0.46483517  0.42261616    -0.34600
N583        N  0.51567415  0.44918282  0.43658776    -0.26700
C584        C  0.53223969  0.44380361  0.45232130    -0.02000
C585        C  0.57044717  0.45697981  0.44827984     0.06600
C586        C  0.57537817  0.47025045  0.42922500     0.04700
H587        H  0.51803689  0.43310782  0.46614366     0.09800
H588        H  0.60178063  0.48387148  0.42101954     0.08700
N589        N  0.56343775  0.53966132  0.55541023    -0.25700
N590        N  0.57468622  0.52559719  0.56966322    -0.33600
C591        C  0.60460094  0.52209595  0.56340553     0.02600
C592        C  0.61259398  0.53513877  0.54429750     0.08600
C593        C  0.58600740  0.54611307  0.53988783    -0.04500
H594        H  0.61870673  0.51016137  0.57190864     0.09300
H595        H  0.58191440  0.55597446  0.52592946     0.10500
Cu596      Cu  0.54566592  0.51186106  0.59612579     0.44200
Cu597      Cu  0.51376088  0.54321842  0.55653062     0.42000
Cu598      Cu  0.95163160  0.51445792  0.59303545     0.43900
N599        N  0.51223620  0.50501361  0.62057604    -0.33100
N600        N  0.97929851  0.50929456  0.61785064    -0.27400
C601        C  0.96691439  0.50546465  0.63639845    -0.03500
C602        C  0.49451449  0.50054850  0.65136723     0.08700
C603        C  0.52379144  0.50598081  0.63905708     0.02500
H604        H  0.94000578  0.50304858  0.64069182     0.10200
H605        H  0.55163345  0.51049515  0.64322045     0.09300
N606        N  0.93687432  0.52923971  0.56639422    -0.34600
N607        N  0.96219751  0.54469499  0.55219387    -0.26700
C608        C  0.94562431  0.55121338  0.53684836    -0.02000
C609        C  0.90783060  0.53898147  0.54126322     0.06600
C610        C  0.90307852  0.52508279  0.56020217     0.04700
H611        H  0.95956997  0.56217663  0.52299305     0.09800
H612        H  0.87697085  0.51219876  0.56865322     0.08700
N613        N  0.53759623  0.07385716  0.10185253    -0.25700
N614        N  0.53156053  0.08865690  0.08599751    -0.33600
C615        C  0.52307424  0.11581981  0.09144204     0.02600
C616        C  0.52386516  0.11781687  0.11167706     0.08600
C617        C  0.53284596  0.09061068  0.11761322    -0.04500
H618        H  0.51353795  0.13029531  0.08159945     0.09300
H619        H  0.53283100  0.08143461  0.13241637     0.10500
Cu620      Cu  0.52814908  0.06392161  0.05858329     0.44200
Cu621      Cu  0.51402793  0.50994890  0.10447825     0.42000
Cu622      Cu  0.49999706  0.45410370  0.06191711     0.43900
N623        N  0.51974352  0.02793365  0.03463371    -0.33100
N624        N  0.50134201  0.48347950  0.03661026    -0.27400
C625        C  0.50030581  0.47102197  0.01832442    -0.03500
C626        C  0.50651639  0.50001815  0.00554529     0.08700
C627        C  0.52107500  0.03715469  0.01563766     0.02500
H628        H  0.49676553  0.44338225  0.01463795     0.10200
H629        H  0.52777113  0.06506366  0.01033568     0.09300
N630        N  0.51119056  0.43852022  0.08904866    -0.34600
N631        N  0.51855911  0.46107446  0.10431228    -0.26700
C632        C  0.52790373  0.44649252  0.11949065    -0.02000
C633        C  0.52580111  0.41274961  0.11377297     0.06600
C634        C  0.51490531  0.40823503  0.09432757     0.04700
H635        H  0.53481497  0.45910085  0.13387407     0.09800
H636        H  0.51072337  0.38524176  0.08470996     0.08700
N637        N  0.49029976  0.44649199  0.22173097    -0.25700
N638        N  0.50138228  0.43610333  0.23757427    -0.33600
C639        C  0.51029246  0.40902099  0.23272597     0.02600
C640        C  0.50435051  0.40222261  0.21287075     0.08600
C641        C  0.49230096  0.42689725  0.20642818    -0.04500
H642        H  0.52223727  0.39689003  0.24263772     0.09300
H643        H  0.48694934  0.43146450  0.19150334     0.10500
Cu644      Cu  0.50608026  0.46313879  0.26419940     0.44200
Cu645      Cu  0.47637065  0.98981783  0.22386817     0.42000
Cu646      Cu  0.49104566  0.04710315  0.26642270     0.43900
N647        N  0.50267357  0.49194047  0.28873187    -0.33100
N648        N  0.49596255  0.01852177  0.29108510    -0.27400
C649        C  0.49102169  0.02482541  0.30990902    -0.03500
C650        C  0.49729453  0.00039995  0.32156770     0.08700
C651        C  0.50480246  0.48239213  0.30728356     0.02500
H652        H  0.48342708  0.04564223  0.31475615     0.10200
H653        H  0.51018440  0.45970266  0.31154014     0.09300
N654        N  0.48384826  0.06426890  0.23845602    -0.34600
N655        N  0.47633180  0.04116780  0.22339689    -0.26700
C656        C  0.47194696  0.05759176  0.20739151    -0.02000
C657        C  0.47746443  0.09317866  0.21218334     0.06600
C658        C  0.48515707  0.09677902  0.23211018     0.04700
H659        H  0.46642255  0.04497826  0.19301587     0.09800
H660        H  0.49108630  0.12096140  0.24124200     0.08700
C661        C  0.51007026  0.32747168  0.14480603    -0.09300
C662        C  0.50522443  0.34181672  0.16247198    -0.03200
C663        C  0.50211469  0.32387357  0.18037146    -0.09300
C664        C  0.50089201  0.28807237  0.18048177     0.11700
C665        C  0.50535739  0.27252952  0.16270249    -0.01100
C666        C  0.51004969  0.29237556  0.14483949     0.11500
C667        C  0.51494371  0.27678181  0.12755627    -0.11100
C668        C  0.51553559  0.24255837  0.12767289    -0.11100
C669        C  0.51127635  0.22245874  0.14508369     0.11500
C670        C  0.50544923  0.23719800  0.16279228    -0.01100
C671        C  0.49555489  0.26745362  0.19780962    -0.11200
C672        C  0.49451741  0.23234306  0.19781517    -0.11200
C673        C  0.49994100  0.21686954  0.18058640     0.11700
C674        C  0.50001078  0.18168321  0.18058929    -0.09300
C675        C  0.50761903  0.16891599  0.16303532    -0.03200
C676        C  0.51259352  0.18799709  0.14525043    -0.09300
H677        H  0.51872835  0.29111530  0.11373601     0.08900
H678        H  0.51918012  0.23193497  0.11386744     0.08900
H679        H  0.49206315  0.27822495  0.21160168     0.09100
H680        H  0.48976658  0.21762605  0.21157670     0.09100
H681        H  0.50247046  0.36716498  0.16218812     0.05500
H682        H  0.51143827  0.14422392  0.16341909     0.05500
C683        C  0.68344883  0.18542049  0.80970441    -0.09300
C684        C  0.67102134  0.16470986  0.82714347    -0.03200
C685        C  0.69288327  0.17624014  0.84428475    -0.09300
C686        C  0.72857204  0.21107963  0.84414970     0.11700
C687        C  0.74152045  0.23330611  0.82675153    -0.01100
C688        C  0.71878523  0.22053456  0.80953511     0.11500
C689        C  0.73221671  0.24305849  0.79260345    -0.11100
C690        C  0.76697666  0.27758137  0.79248836    -0.11100
C691        C  0.79019277  0.29076232  0.80919280     0.11500
C692        C  0.77739041  0.26835351  0.82654887    -0.01100
C693        C  0.75197249  0.22402940  0.86079638    -0.11200
C694        C  0.78711512  0.25813300  0.86057415    -0.11200
C695        C  0.80031663  0.28088682  0.84372113     0.11700
C696        C  0.83620143  0.31537475  0.84341411    -0.09300
C697        C  0.84780969  0.33693454  0.82620594    -0.03200
C698        C  0.82554443  0.32597810  0.80918762    -0.09300
H699        H  0.71598358  0.23421685  0.77918746     0.08900
H700        H  0.77549608  0.29383980  0.77909400     0.08900
H701        H  0.74350154  0.20765675  0.87415925     0.09100
H702        H  0.80402482  0.26631415  0.87378360     0.09100
H703        H  0.64275305  0.13949806  0.82758250     0.05500
H704        H  0.87502658  0.36339367  0.82611005     0.05500
C705        C  0.66311814  0.48838612  0.47835997    -0.09300
C706        C  0.65128545  0.49637878  0.49605397    -0.03200
C707        C  0.67316412  0.50542002  0.51314981    -0.09300
C708        C  0.70846899  0.50562908  0.51270445     0.11700
C709        C  0.72184642  0.49859201  0.49483014    -0.01100
C710        C  0.69929975  0.49032450  0.47758332     0.11500
C711        C  0.71192584  0.96924163  0.46141188    -0.11100
C712        C  0.74708535  0.97022370  0.46141090    -0.11100
C713        C  0.77164343  0.49343388  0.47627329     0.11500
C714        C  0.75795202  0.49995112  0.49419669    -0.01100
C715        C  0.73122077  0.51360737  0.52948308    -0.11200
C716        C  0.76628067  0.51457252  0.52891041    -0.11200
C717        C  0.78024672  0.50783308  0.51150706     0.11700
C718        C  0.81631078  0.50967995  0.51081842    -0.06900
C719        C  0.82885797  0.50292417  0.49302518    -0.03200
C720        C  0.80742091  0.49446946  0.47577317    -0.09300
H721        H  0.69556004  0.96131221  0.44802733     0.08900
H722        H  0.75606799  0.96299494  0.44802059     0.08900
H723        H  0.72225751  0.51950445  0.54325290     0.09100
H724        H  0.78262269  0.52123043  0.54227505     0.09100
H725        H  0.62418128  0.49581557  0.49653822     0.05500
H726        H  0.85622033  0.50401711  0.49260707     0.05500
C727        C  0.47609590  0.11957238  0.19755356    -0.14900
C728        C  0.49472141  0.15818394  0.19861478    -0.30100
H729        H  0.97588156  0.09989135  0.18449127     0.14100
H730        H  0.50874655  0.17233375  0.21208438     0.14700
C731        C  0.51679292  0.38135597  0.19992900    -0.14900
C732        C  0.49780610  0.34281958  0.19824427    -0.30100
H733        H  0.53803553  0.39861105  0.18907161     0.14100
H734        H  0.47615194  0.32558655  0.20892547     0.14700
C735        C  0.50721552  0.13463426  0.12480903    -0.14900
C736        C  0.52231558  0.17257678  0.12756664    -0.30100
H737        H  0.48535700  0.11479024  0.13474553     0.14100
H738        H  0.01169078  0.15707526  0.11223953     0.14700
C739        C  0.53271116  0.38809741  0.12705983    -0.14900
C740        C  0.51290769  0.34953371  0.12671720    -0.30100
H741        H  0.55034528  0.40241575  0.13970971     0.14100
H742        H  0.00941845  0.32801516  0.11076827     0.14700
C743        C  0.87986680  0.53808142  0.52690893    -0.14900
C744        C  0.84136693  0.51678740  0.52837228    -0.30100
H745        H  0.88946787  0.04025910  0.51537589     0.14100
H746        H  0.82847393  0.50195595  0.54186719     0.14700
C747        C  0.65693602  0.51335815  0.53108547    -0.14900
C748        C  0.63922748  0.53417574  0.52975595    -0.30100
H749        H  0.65631871  0.49930374  0.54466275     0.14100
H750        H  0.64046283  0.04145791  0.51325844     0.14700
C751        C  0.84324354  0.46793138  0.45896571    -0.14900
C752        C  0.82475845  0.48806492  0.45772420    -0.30100
H753        H  0.84052104  0.45261704  0.47242943     0.14100
H754        H  0.82303465  0.98617614  0.44712810     0.14700
C755        C  0.63727232  0.48006680  0.46100227    -0.14900
C756        C  0.59874383  0.45954286  0.46292976    -0.30100
H757        H  0.64776858  0.97793287  0.44689153     0.14100
H758        H  0.58678065  0.44567047  0.47676263     0.14700
C759        C  0.86081755  0.39050390  0.79418284    -0.14900
C760        C  0.84151570  0.35205598  0.79177997    -0.30100
H761        H  0.86054868  0.40194347  0.80845261     0.14100
H762        H  0.84071997  0.33990968  0.77758085     0.14700
C763        C  0.63675500  0.13236489  0.78876323    -0.14900
C764        C  0.65717046  0.17024354  0.79244428    -0.30100
H765        H  0.64155715  0.11273050  0.79751201     0.14100
H766        H  0.65206942  0.18974964  0.78376382     0.14700
C767        C  0.90023689  0.34987376  0.85900334    -0.14900
C768        C  0.86178157  0.33154050  0.86092423    -0.30100
H769        H  0.91225700  0.34878426  0.84504159     0.14100
H770        H  0.84921711  0.33165249  0.87485903     0.14700
C771        C  0.65662023  0.11304324  0.86048715    -0.14900
C772        C  0.67591157  0.15161220  0.86206935    -0.30100
H773        H  0.65757893  0.10053605  0.84664804     0.14100
H774        H  0.67663126  0.16497703  0.87588084     0.14700
N775        N  0.58220712  0.53078176  0.88891292    -0.25700
N776        N  0.59102800  0.55682830  0.90265251    -0.33600
C777        C  0.62036250  0.59059933  0.89624741     0.02600
C778        C  0.63032297  0.58496572  0.87766906     0.08600
C779        C  0.60552003  0.54682840  0.87365863    -0.04500
H780        H  0.63299369  0.61715322  0.90434072     0.09300
H781        H  0.60348437  0.53206844  0.86018269     0.10500
Cu782      Cu  0.56091060  0.54248241  0.92903023     0.44200
Cu783      Cu  0.53669515  0.97513226  0.88779932     0.42000
Cu784      Cu  0.97483795  0.93709601  0.92903467     0.43900
N785        N  0.52769808  0.51436137  0.95356726    -0.33100
N786        N  0.99945061  0.97087898  0.95384231    -0.27400
C787        C  0.98904533  0.95999112  0.97243497    -0.03500
C788        C  0.50870589  0.49916329  0.98418105     0.08700
C789        C  0.53447643  0.52777451  0.97198395     0.02500
H790        H  0.96676331  0.93181137  0.97684344     0.10200
H791        H  0.55746136  0.55571297  0.97627067     0.09300
N792        N  0.95971590  0.91041489  0.90177414    -0.34600
N793        N  0.98494860  0.92240878  0.88747161    -0.26700
C794        C  0.96836745  0.90114651  0.87154683    -0.02000
C795        C  0.93062343  0.87463733  0.87575216     0.06600
C796        C  0.92596932  0.88134904  0.89513712     0.04700
H797        H  0.98225496  0.90590955  0.85754521     0.09800
H798        H  0.89998928  0.86679263  0.90364018     0.08700
N799        N  0.94668896  0.95888596  0.77134243    -0.25700
N800        N  0.92894553  0.94074277  0.75523673    -0.33600
C801        C  0.89573147  0.90898431  0.76015500     0.02600
C802        C  0.89266337  0.90807606  0.78030759     0.08600
C803        C  0.92528660  0.94010693  0.78678038    -0.04500
H804        H  0.87518626  0.88873109  0.74991009     0.09300
H805        H  0.93332096  0.94878486  0.80174936     0.10500
Cu806      Cu  0.95243164  0.96336175  0.72799902     0.44200
Cu807      Cu  0.48797964  0.02543145  0.76866684     0.42000
Cu808      Cu  0.54908471  0.54564596  0.72743264     0.43900
N809        N  0.98455971  0.99349532  0.70364575    -0.33100
N810        N  0.51552210  0.51647651  0.70325779    -0.27400
C811        C  0.52608030  0.52536184  0.68453633    -0.03500
C812        C  0.49460935  0.00146923  0.67066635     0.08700
C813        C  0.97272369  0.98605882  0.68497628     0.02500
H814        H  0.55376239  0.54816806  0.67982985     0.10200
H815        H  0.94455203  0.96395703  0.68038740     0.09300
N816        N  0.57424641  0.56805844  0.75441764    -0.34600
N817        N  0.55575122  0.55208523  0.77070833    -0.26700
C818        C  0.57897556  0.56924568  0.78592144    -0.02000
C819        C  0.61360802  0.59805891  0.77906481     0.06600
C820        C  0.60987966  0.59664877  0.75894908     0.04700
H821        H  0.57144852  0.56077989  0.80094238     0.09800
H822        H  0.63188995  0.61359527  0.74844856     0.08700
N823        N  0.91527628  0.94361146  0.43695873    -0.25700
N824        N  0.90692713  0.96070212  0.42292111    -0.33600
C825        C  0.87805393  0.96608625  0.42913540     0.02600
C826        C  0.86782780  0.95123567  0.44788991     0.08600
C827        C  0.89206198  0.93731879  0.45217094    -0.04500
H828        H  0.86601754  0.98032377  0.42082653     0.09300
H829        H  0.89395591  0.92508119  0.46585392     0.10500
Cu830      Cu  0.93717858  0.97518117  0.39637297     0.44200
Cu831      Cu  0.45878553  0.93086017  0.43682057     0.42000
Cu832      Cu  0.52328485  0.96605139  0.39726087     0.43900
N833        N  0.97179604  0.48661458  0.36913139    -0.33100
N834        N  0.50352827  0.49107655  0.37157435    -0.27400
C835        C  0.51654356  0.49406417  0.35326461    -0.03500
C836        C  0.49441419  0.50222905  0.34097996     0.08700
C837        C  0.96403478  0.48963170  0.35028908     0.02500
H838        H  0.54023328  0.49015779  0.34915782     0.10200
H839        H  0.94139955  0.49463049  0.34541146     0.09300
N840        N  0.53812072  0.95070744  0.42355823    -0.34600
N841        N  0.51300499  0.93585604  0.43785803    -0.26700
C842        C  0.53014028  0.93041631  0.45336423    -0.02000
C843        C  0.56809763  0.94283742  0.44886633     0.06600
C844        C  0.57219956  0.95560266  0.42974056     0.04700
H845        H  0.51666425  0.92052772  0.46740999     0.09800
H846        H  0.59825616  0.96889957  0.42125195     0.08700
N847        N  0.56602642  0.03926164  0.55291267    -0.25700
N848        N  0.57811214  0.02690260  0.56759706    -0.33600
C849        C  0.60737043  0.02227190  0.56140853     0.02600
C850        C  0.61407258  0.03270816  0.54190298     0.08600
C851        C  0.58743124  0.04343299  0.53716298    -0.04500
H852        H  0.62171088  0.01101842  0.57023088     0.09300
H853        H  0.58233651  0.05132378  0.52288510     0.10500
Cu854      Cu  0.55066219  0.01524191  0.59455361     0.44200
Cu855      Cu  0.51628465  0.04273796  0.55376368     0.42000
Cu856      Cu  0.95577613  0.01386754  0.59619511     0.43900
N857        N  0.51564282  0.00545620  0.61879568    -0.33100
N858        N  0.98622254  0.01276873  0.62087134    -0.27400
C859        C  0.97374938  0.00788787  0.63942942    -0.03500
C860        C  0.49520340  0.99951922  0.64923275     0.08700
C861        C  0.52650787  0.00849490  0.63756744     0.02500
H862        H  0.94576743  0.00265351  0.64377057     0.10200
H863        H  0.55522099  0.01693306  0.64237637     0.09300
N864        N  0.93777447  0.02412558  0.56923821    -0.34600
N865        N  0.96225501  0.03879075  0.55464563    -0.26700
C866        C  0.94425778  0.04263875  0.53911339    -0.02000
C867        C  0.90636350  0.02950889  0.54376902     0.06600
C868        C  0.90305637  0.01780893  0.56310983     0.04700
H869        H  0.95744218  0.05263384  0.52501500     0.09800
H870        H  0.87738186  0.00509909  0.57189837     0.08700
N871        N  0.50655007  0.55706932  0.10322382    -0.25700
N872        N  0.50554503  0.57376776  0.08686413    -0.33600
C873        C  0.49899018  0.60269967  0.09119050     0.02600
C874        C  0.49550887  0.60372036  0.11125183     0.08600
C875        C  0.50010574  0.57422206  0.11827428    -0.04500
H876        H  0.49481255  0.62003708  0.08054535     0.09300
H877        H  0.49782457  0.56515616  0.13327694     0.10500
Cu878      Cu  0.50864531  0.55129495  0.05997202     0.44200
Cu879      Cu  0.54331763  0.02571829  0.10217903     0.42000
Cu880      Cu  0.51147452  0.96348004  0.06153281     0.43900
N881        N  0.50710291  0.51882844  0.03589233    -0.33100
N882        N  0.51131478  0.99171831  0.03589241    -0.27400
C883        C  0.50613580  0.97697593  0.01780512    -0.03500
C884        C  0.51233581  0.00519250  0.00446756     0.08700
C885        C  0.51082979  0.52990904  0.01713125     0.02500
H886        H  0.49997536  0.94822218  0.01456093     0.10200
H887        H  0.51583419  0.55753605  0.01228140     0.09300
N888        N  0.52242928  0.94663921  0.08854524    -0.34600
N889        N  0.53641853  0.97136630  0.10306706    -0.26700
C890        C  0.54186508  0.95445136  0.11857243    -0.02000
C891        C  0.53050090  0.91698536  0.11387943     0.06600
C892        C  0.51813800  0.91277776  0.09464239     0.04700
H893        H  0.55203809  0.96808052  0.13258496     0.09800
H894        H  0.50681134  0.88719011  0.08582047     0.08700
N895        N  0.48616445  0.94403484  0.22364991    -0.25700
N896        N  0.49879834  0.93389447  0.23897762    -0.33600
C897        C  0.50604498  0.90588049  0.23364283     0.02600
C898        C  0.49713174  0.89799359  0.21402057     0.08600
C899        C  0.48524142  0.92318946  0.20821454    -0.04500
H900        H  0.51916684  0.89402552  0.24295299     0.09300
H901        H  0.47872947  0.92772910  0.19350640     0.10500
Cu902      Cu  0.50742130  0.96277082  0.26542225     0.44200
Cu903      Cu  0.47683245  0.48984765  0.22114288     0.42000
Cu904      Cu  0.48891458  0.54643183  0.26346906     0.43900
N905        N  0.50426759  0.99060440  0.29044412    -0.33100
N906        N  0.49454950  0.51998424  0.28866406    -0.27400
C907        C  0.49028918  0.52805606  0.30725368    -0.03500
C908        C  0.49679820  0.50463394  0.31951985     0.08700
C909        C  0.50588125  0.97946971  0.30872403     0.02500
H910        H  0.48308157  0.54946087  0.31152414     0.10200
H911        H  0.51108472  0.95638602  0.31235799     0.09300
N912        N  0.47982992  0.56212537  0.23565730    -0.34600
N913        N  0.47282551  0.53915261  0.22059820    -0.26700
C914        C  0.46660533  0.55472583  0.20475145    -0.02000
C915        C  0.47055939  0.58966599  0.20973070     0.06600
C916        C  0.47911908  0.59369425  0.22952159     0.04700
H917        H  0.46111238  0.54217469  0.19036087     0.09800
H918        H  0.48425322  0.61753727  0.23872739     0.08700
C919        C  0.50362842  0.82638827  0.14442416    -0.09300
C920        C  0.49841362  0.83994406  0.16228202    -0.03200
C921        C  0.49454804  0.82103976  0.17996514    -0.09300
C922        C  0.49311529  0.78514427  0.17966441     0.11700
C923        C  0.49684775  0.76978463  0.16164684    -0.01100
C924        C  0.50203201  0.79042004  0.14397808     0.11500
C925        C  0.50573197  0.77460697  0.12644924    -0.11100
C926        C  0.50405656  0.73920016  0.12609637    -0.11100
C927        C  0.49934092  0.71841988  0.14330334     0.11500
C928        C  0.49568360  0.73380786  0.16132355    -0.01100
C929        C  0.48828485  0.76427036  0.19685266    -0.11200
C930        C  0.48687406  0.72900751  0.19651913    -0.11200
C931        C  0.49081593  0.71330895  0.17902372     0.11700
C932        C  0.49000492  0.67770274  0.17867434    -0.09300
C933        C  0.49522431  0.66424722  0.16080908    -0.03200
C934        C  0.49815341  0.68267060  0.14306585    -0.09300
H935        H  0.50994748  0.78946718  0.11276772     0.08900
H936        H  0.50666230  0.72832805  0.11214127     0.08900
H937        H  0.48564204  0.77504739  0.21082329     0.09100
H938        H  0.48271024  0.71419226  0.21020925     0.09100
H939        H  0.49626223  0.86563360  0.16232901     0.05500
H940        H  0.49827304  0.63907746  0.16075695     0.05500
C941        C  0.68981545  0.67760009  0.81073914    -0.09300
C942        C  0.67479583  0.66010192  0.82868772    -0.03200
C943        C  0.69485690  0.67365067  0.84624669    -0.09300
C944        C  0.73070882  0.70819061  0.84608988     0.11700
C945        C  0.74564393  0.72794171  0.82818951    -0.01100
C946        C  0.72506315  0.71263323  0.81047558     0.11500
C947        C  0.74044289  0.73261514  0.79302262    -0.11100
C948        C  0.77486080  0.76733054  0.79287861    -0.11100
C949        C  0.79584911  0.78292965  0.81009870     0.11500
C950        C  0.78146919  0.76287959  0.82795259    -0.01100
C951        C  0.75233765  0.72320560  0.86319448    -0.11200
C952        C  0.78775033  0.75707458  0.86290588    -0.11200
C953        C  0.80280989  0.77763659  0.84554009     0.11700
C954        C  0.83889663  0.81209314  0.84510146    -0.09300
C955        C  0.85135676  0.83185956  0.82741009    -0.03200
C956        C  0.83050632  0.81841274  0.81004288    -0.09300
H957        H  0.72584599  0.72177571  0.77927682     0.08900
H958        H  0.78493389  0.78179449  0.77905902     0.08900
H959        H  0.74222772  0.70865537  0.87699117     0.09100
H960        H  0.80324155  0.76691095  0.87649578     0.09100
H961        H  0.64628262  0.63521325  0.82902926     0.05500
H962        H  0.87811610  0.85881665  0.82710685     0.05500
C963        C  0.66207424  0.97659843  0.47842664    -0.09300
C964        C  0.65078288  0.98714072  0.49552624    -0.03200
C965        C  0.67285410  0.99806394  0.51260161    -0.09300
C966        C  0.70771677  0.99736248  0.51287689     0.11700
C967        C  0.72064969  0.98779935  0.49561357    -0.01100
C968        C  0.69809633  0.97801540  0.47825770     0.11500
C969        C  0.71328945  0.48352326  0.46018580    -0.11100
C970        C  0.74874405  0.48519216  0.45953188    -0.11100
C971        C  0.76976068  0.97952496  0.47832264     0.11500
C972        C  0.75629147  0.98809587  0.49571214    -0.01100
C973        C  0.73043395  0.00677727  0.52977366    -0.11200
C974        C  0.76486770  0.00639355  0.52996084    -0.11200
C975        C  0.77838410  0.99706863  0.51319223     0.11700
C976        C  0.81382430  0.99741572  0.51324517    -0.06900
C977        C  0.82598271  0.98839291  0.49593949    -0.03200
C978        C  0.80506131  0.97959840  0.47849520    -0.09300
H979        H  0.69682585  0.47657454  0.44685619     0.08900
H980        H  0.75791201  0.47956265  0.44575038     0.08900
H981        H  0.72187688  0.01471806  0.54307624     0.09100
H982        H  0.78110247  0.01402527  0.54338831     0.09100
H983        H  0.62387535  0.98700483  0.49554402     0.05500
H984        H  0.85285398  0.98845949  0.49601916     0.05500
C985        C  0.46733486  0.61556050  0.19550103    -0.14900
C986        C  0.48599160  0.65422222  0.19652247    -0.30100
H987        H  0.99244852  0.60652147  0.18304385     0.14100
H988        H  0.50122890  0.66845362  0.20974442     0.14700
C989        C  0.50901651  0.87758051  0.20039272    -0.14900
C990        C  0.48985283  0.83915269  0.19810000    -0.30100
H991        H  0.53054064  0.89538514  0.18977292     0.14100
H992        H  0.46807722  0.82137769  0.20861577     0.14700
C993        C  0.48280897  0.62552853  0.12331202    -0.14900
C994        C  0.50226725  0.66405161  0.12500413    -0.30100
H995        H  0.46102356  0.60875315  0.13404998     0.14100
H996        H  0.05891875  0.68600891  0.11392125     0.14700
C997        C  0.53038832  0.88921141  0.12803776    -0.14900
C998        C  0.50931514  0.85066422  0.12672692    -0.30100
H999        H  0.54618038  0.90175669  0.14141007     0.14100
H1000       H  0.01242135  0.83085971  0.11329007     0.14700
C1001       C  0.87757552  0.02657743  0.52925807    -0.14900
C1002       C  0.83900740  0.00595118  0.53097575    -0.30100
H1003       H  0.89212310  0.55341789  0.51342325     0.14100
H1004       H  0.82618142  0.99293507  0.54482313     0.14700
C1005       C  0.65715901  0.00855979  0.52987328    -0.14900
C1006       C  0.63939180  0.02913335  0.52747019    -0.30100
H1007       H  0.65722600  0.99670542  0.54404378     0.14100
H1008       H  0.64110518  0.54861764  0.51610158     0.14700
C1009       C  0.84097501  0.95231307  0.46232032    -0.14900
C1010       C  0.82250882  0.97238386  0.46078029    -0.30100
H1011       H  0.83878730  0.93771603  0.47596186     0.14100
H1012       H  0.82588636  0.50297713  0.44437187     0.14700
C1013       C  0.63571990  0.96623798  0.46105313    -0.14900
C1014       C  0.59715403  0.94615138  0.46334039    -0.30100
H1015       H  0.64968829  0.49317219  0.44711340     0.14100
H1016       H  0.58576337  0.93364748  0.47749342     0.14700
C1017       C  0.86260971  0.88066599  0.79344711    -0.14900
C1018       C  0.84705235  0.84245406  0.79221691    -0.30100
H1019       H  0.85885560  0.89277074  0.80682421     0.14100
H1020       H  0.85091735  0.82962013  0.77916193     0.14700
C1021       C  0.64765774  0.62001268  0.79142737    -0.14900
C1022       C  0.66652790  0.65849914  0.79290075    -0.30100
H1023       H  0.65253971  0.60349868  0.80239130     0.14100
H1024       H  0.66136600  0.67534800  0.78227999     0.14700
C1025       C  0.90269121  0.84843113  0.86107640    -0.14900
C1026       C  0.86406016  0.82984537  0.86270531    -0.30100
H1027       H  0.91512725  0.84682897  0.84734971     0.14100
H1028       H  0.85112810  0.83029175  0.87646048     0.14700
C1029       C  0.65789265  0.61193006  0.86325628    -0.14900
C1030       C  0.67637536  0.65051583  0.86421240    -0.30100
H1031       H  0.66052793  0.59869968  0.85001957     0.14100
H1032       H  0.67533610  0.66471574  0.87740888     0.14700
loop_ 
_geom_bond_atom_site_label_1 
_geom_bond_atom_site_label_2 
_geom_bond_distance 
_geom_bond_site_symmetry_2 
_ccdc_geom_bond_type 
N1            N2   1.322       .  A
N1            C5   1.342       .  A
N1         Cu267   2.084   1_545  S
N2            C3   1.354       .  A
N2           Cu8   2.090       .  S
C3            C4   1.390       .  A
C3            H6   1.082       .  S
C4            C5   1.382       .  A
C4          C255   1.482       .  S
C5            H7   1.082       .  S
Cu8          N11   2.092       .  S
Cu9         N259   2.073       .  S
Cu9         N535   2.072   1_455  S
Cu10         N12   2.086       .  S
Cu10         N18   2.083       .  S
N11         N786   1.326   1_445  A
N11          C15   1.348       .  A
N12         N785   1.327       .  A
N12          C13   1.346       .  A
C13         C788   1.380       .  A
C13          H16   1.082       .  S
C14          C15   1.383   1_565  A
C14         C787   1.383   1_455  A
C14         C368   1.474   1_556  S
C15          H17   1.082       .  S
N18          N19   1.320       .  A
N18          C22   1.353       .  A
N19          C20   1.342       .  A
N19        Cu525   2.073       .  S
C20          C21   1.382       .  A
C20          H23   1.082       .  S
C21          C22   1.390       .  A
C21         C251   1.481       .  S
C22          H24   1.082       .  S
N25          N26   1.321       .  A
N25          C29   1.340       .  A
N25        Cu549   2.067       .  S
N26          C27   1.354       .  A
N26         Cu32   2.088       .  S
C27          C28   1.389       .  A
C27          H30   1.082       .  S
C28          C29   1.379       .  A
C28         C243   1.476       .  S
C29          H31   1.082       .  S
Cu32         N35   2.091       .  S
Cu33        N541   2.086       .  S
Cu33        N301   2.086   1_655  S
Cu34         N36   2.094       .  S
Cu34         N42   2.091       .  S
N35         N810   1.327       .  A
N35          C39   1.348       .  A
N36         N809   1.327   1_445  A
N36          C37   1.347       .  A
C37         C296   1.383       .  A
C37          H40   1.082       .  S
C38         C295   1.384   1_655  A
C38         C555   1.384       .  A
C38          C86   1.479       .  S
C39         C554   1.381       .  A
C39          H41   1.081       .  S
N42          N43   1.321       .  A
N42          C46   1.353       .  A
N43          C44   1.340       .  A
N43        Cu291   2.061       .  S
C44          C45   1.378       .  A
C44          H47   1.082       .  S
C45          C46   1.388       .  A
C45         C247   1.472       .  S
C46          H48   1.082       .  S
N49          N50   1.323       .  A
N49          C53   1.342       .  A
N49        Cu573   2.078       .  S
N50          C51   1.355       .  A
N50         Cu56   2.104       .  S
C51          C52   1.393       .  A
C51          H54   1.082       .  S
C52          C53   1.380       .  A
C52         C235   1.485       .  S
C53          H55   1.082       .  S
Cu56        N317   2.106       .  S
Cu57         N67   2.080   1_655  S
Cu57        N565   2.080       .  S
Cu58         N66   2.085       .  S
Cu58        N318   2.088       .  S
N59         N576   1.326       .  A
N59          C63   1.352       .  A
N59        Cu314   2.108       .  S
N60         N575   1.327       .  A
N60          C61   1.347   1_655  A
N60        Cu316   2.093   1_655  S
C61          C62   1.382   1_455  A
C61          H64   1.082       .  S
C62         C579   1.388       .  A
C62         C134   1.481       .  S
C63         C578   1.387       .  A
C63          H65   1.082   1_565  S
N66          N67   1.320       .  A
N66          C70   1.354       .  A
N67          C68   1.342       .  A
C68          C69   1.383       .  A
C68          H71   1.082       .  S
C69          C70   1.390       .  A
C69         C240   1.482       .  S
C70          H72   1.082       .  S
N73          N74   1.321       .  A
N73          C77   1.343       .  A
N73         Cu81   2.080       .  S
N74          C75   1.355       .  A
N74         Cu80   2.093       .  S
C75          C76   1.391       .  A
C75          H78   1.082       .  S
C76          C77   1.384       .  A
C76         C232   1.485       .  S
C77          H79   1.082       .  S
Cu80         N83   2.096       .  S
Cu81        N607   2.079   1_455  S
Cu82         N84   2.104       .  S
Cu82         N90   2.102       .  S
N83         N600   1.327   1_455  A
N83          C87   1.348       .  A
N84         N599   1.328       .  A
N84          C85   1.349       .  A
C85         C602   1.384       .  A
C85          H88   1.082       .  S
C86          C87   1.383   1_655  A
C86         C601   1.385       .  A
C87          H89   1.081       .  S
N90          N91   1.322       .  A
N90          C94   1.357       .  A
N91          C92   1.341       .  A
N91        Cu597   2.082       .  S
C92          C93   1.382       .  A
C92          H95   1.082       .  S
C93          C94   1.394       .  A
C93         C227   1.488       .  S
C94          H96   1.082       .  S
N97          N98   1.321       .  A
N97         C101   1.341       .  A
N97        Cu363   2.073       .  S
N98          C99   1.354       .  A
N98        Cu104   2.092       .  S
C99         C100   1.391       .  A
C99         H102   1.082       .  S
C100        C101   1.381       .  A
C100        C219   1.481       .  S
C101        H103   1.082       .  S
Cu104       N107   2.095       .  S
Cu105       N115   2.081       .  S
Cu105       N355   2.082       .  S
Cu106       N108   2.099       .  S
Cu106       N114   2.097       .  S
N107        N366   1.327   1_545  A
N107        C111   1.348       .  A
N108        N365   1.327       .  A
N108        C109   1.349       .  A
C109        C110   1.384       .  A
C109        H112   1.082       .  S
C110        C369   1.382       .  A
C110        C272   1.475   1_554  S
C111        C368   1.383   1_545  A
C111        H113   1.082       .  S
N114        N115   1.322       .  A
N114        C118   1.356       .  A
N115        C116   1.341       .  A
C116        C117   1.382       .  A
C116        H119   1.082       .  S
C117        C118   1.391       .  A
C117        C223   1.483       .  S
C118        H120   1.082       .  S
N121        N122   1.322       .  A
N121        C125   1.340       .  A
N121       Cu387   2.066       .  S
N122        C123   1.356       .  A
N122       Cu128   2.104       .  S
C123        C124   1.392       .  A
C123        H126   1.082       .  S
C124        C125   1.378       .  A
C124        C215   1.480       .  S
C125        H127   1.082       .  S
Cu128       N131   2.108   1_455  S
Cu129       N139   2.068   1_565  S
Cu129       N379   2.068       .  S
Cu130       N132   2.108       .  S
Cu130       N138   2.105   1_655  S
N131        N390   1.327       .  A
N131        C135   1.349       .  A
N132        N389   1.328   1_645  A
N132        C133   1.351       .  A
C133        C134   1.385   1_545  A
C133        H136   1.082       .  S
C134        C393   1.384   1_655  A
C135        C392   1.386       .  A
C135        H137   1.082   1_655  S
N138        N139   1.322       .  A
N138        C142   1.356   1_455  A
N139        C140   1.341       .  A
C140        C141   1.378       .  A
C140        H143   1.082       .  S
C141        C142   1.392   1_455  A
C141        C211   1.479   1_455  S
C142        H144   1.082       .  S
C145        C146   1.401       .  A
C145        C150   1.421       .  A
C145        C224   1.505       .  S
C146        C147   1.401       .  A
C146        H165   1.084       .  S
C147        C148   1.419       .  A
C147        C216   1.504       .  S
C148        C149   1.427       .  A
C148        C155   1.405       .  A
C149        C150   1.427       .  A
C149        C154   1.428       .  A
C150        C151   1.406       .  A
C151        C152   1.397       .  A
C151        H161   1.082       .  S
C152        C153   1.407       .  A
C152        H162   1.082       .  S
C153        C154   1.426       .  A
C153        C160   1.420       .  A
C154        C157   1.427       .  A
C155        C156   1.395       .  A
C155        H163   1.081       .  S
C156        C157   1.406       .  A
C156        H164   1.082       .  S
C157        C158   1.420       .  A
C158        C159   1.403       .  A
C158        C212   1.505       .  S
C159        C160   1.403       .  A
C159        H166   1.082       .  S
C160        C220   1.503       .  S
C167        C168   1.400       .  A
C167        C172   1.417       .  A
C167        C248   1.500       .  S
C168        C169   1.400       .  A
C168        H187   1.084       .  S
C169        C170   1.419       .  A
C169        C256   1.502       .  S
C170        C171   1.427       .  A
C170        C177   1.405       .  A
C171        C172   1.426       .  A
C171        C176   1.427       .  A
C172        C173   1.406       .  A
C173        C174   1.394       .  A
C173        H183   1.081       .  S
C174        C175   1.405       .  A
C174        H184   1.082       .  S
C175        C176   1.426       .  A
C175        C182   1.417       .  A
C176        C179   1.426       .  A
C177        C178   1.397       .  A
C177        H185   1.082       .  S
C178        C179   1.407       .  A
C178        H186   1.082       .  S
C179        C180   1.420       .  A
C180        C181   1.401       .  A
C180        C252   1.502       .  S
C181        C182   1.402       .  A
C181        H188   1.083       .  S
C182        C244   1.501       .  S
C189        C190   1.401       .  A
C189        C194   1.420       .  A
C189        C239   1.505       .  S
C190        C191   1.402       .  A
C190        H209   1.082       .  S
C191        C192   1.423       .  A
C191        C231   1.506       .  S
C192        C193   1.427       .  A
C192        C199   1.407       .  A
C193        C194   1.427       .  A
C193        C198   1.430       .  A
C194        C453   1.405       .  A
C195        C196   1.397       .  A
C195        C452   1.407       .  A
C195        H205   1.082       .  S
C196        C455   1.405       .  A
C196        H206   1.082       .  S
C197        C198   1.426       .  A
C197        C204   1.419       .  A
C197        C454   1.406       .  A
C198        C201   1.427       .  A
C199        C200   1.399       .  A
C199        H207   1.082       .  S
C200        C201   1.407       .  A
C200        H208   1.082       .  S
C201        C202   1.424       .  A
C202        C203   1.404       .  A
C202        C228   1.509       .  S
C203        C204   1.403       .  A
C203        H210   1.083       .  S
C204        C236   1.504       .  S
C211        C212   1.350   1_655  D
C211        H729   1.086       .  S
C212        H214   1.086       .  S
H213        C727   1.087       .  S
C215        C216   1.350       .  D
C215        H217   1.087       .  S
C216        H218   1.085   1_455  S
C219        C220   1.350       .  D
C219        H221   1.087       .  S
C220        H738   1.085       .  S
H222        C736   1.086       .  S
C223        C224   1.352       .  D
C223        H225   1.087       .  S
C224        H742   1.085       .  S
H226        C740   1.086       .  S
C227        C228   1.353       .  D
C227        H487   1.087       .  S
C228        H230   1.085       .  S
H229        C485   1.087       .  S
C231        C232   1.353       .  D
C231        H233   1.085       .  S
C232        H492   1.087       .  S
H234        C490   1.086       .  S
C235        C236   1.350       .  D
C235        H237   1.087       .  S
C236        H496   1.085       .  S
H238        C494   1.085       .  S
C239        C240   1.352       .  D
C239        H499   1.085       .  S
C240        H242   1.087       .  S
H241        C497   1.085       .  S
C243        C244   1.348       .  D
C243        H245   1.087       .  S
C244        H246   1.086       .  S
C247        C248   1.348       .  D
C247        H249   1.086       .  S
C248        H250   1.086       .  S
C251        C252   1.351       .  D
C251        H253   1.087       .  S
C252        H254   1.085       .  S
C255        C256   1.351       .  D
C255        H257   1.087       .  S
C256        H258   1.085       .  S
N259        N260   1.321       .  A
N259        C263   1.341       .  A
N260        C261   1.355       .  A
N260       Cu266   2.096       .  S
C261        C262   1.392       .  A
C261        H264   1.082       .  S
C262        C263   1.381       .  A
C262        C513   1.482       .  S
C263        H265   1.082       .  S
Cu266       N269   2.098       .  S
Cu267       N793   2.084   1_455  S
Cu268       N270   2.105       .  S
Cu268       N276   2.102       .  S
N269        N528   1.327   1_455  A
N269        C273   1.348       .  A
N270        N527   1.328   1_565  A
N270        C271   1.349       .  A
C271        C530   1.385   1_565  A
C271        H274   1.082       .  S
C272        C529   1.383   1_455  A
C272        C273   1.383       .  A
C273        H275   1.082       .  S
N276        N277   1.321       .  A
N276        C280   1.356       .  A
N277        C278   1.342       .  A
N277       Cu783   2.079       .  S
C278        C279   1.382       .  A
C278        H281   1.082       .  S
C279        C280   1.393       .  A
C279        C509   1.487       .  S
C280        H282   1.082       .  S
N283        N284   1.322       .  A
N283        C287   1.342       .  A
N283       Cu807   2.076   1_565  S
N284        C285   1.355       .  A
N284       Cu290   2.099       .  S
C285        C286   1.392       .  A
C285        H288   1.082       .  S
C286        C287   1.381       .  A
C286        C501   1.484       .  S
C287        H289   1.082       .  S
Cu290       N293   2.101       .  S
Cu291       N799   2.061   1_445  S
Cu292       N294   2.102       .  S
Cu292       N300   2.101       .  S
N293        N552   1.326   1_565  A
N293        C297   1.350       .  A
N294        N551   1.327   1_455  A
N294        C295   1.349       .  A
C295        H298   1.082       .  S
C296        C813   1.383   1_445  A
C296        C344   1.476       .  S
C297        C812   1.385   1_565  A
C297        H299   1.081       .  S
N300        N301   1.322       .  A
N300        C304   1.354       .  A
N301        C302   1.345       .  A
C302        C303   1.384       .  A
C302        H305   1.082       .  S
C303        C304   1.391       .  A
C303        C505   1.482       .  S
C304        H306   1.082       .  S
N307        N308   1.324       .  A
N307        C311   1.344       .  A
N307       Cu831   2.094       .  S
N308        C309   1.356       .  A
N308       Cu314   2.107       .  S
C309        C310   1.393       .  A
C309        H312   1.082       .  S
C310        C311   1.384       .  A
C310        C493   1.490       .  S
C311        H313   1.082       .  S
Cu315       N823   2.078       .  S
Cu315       N325   2.077   1_655  S
Cu316       N324   2.090       .  S
N317        N834   1.327       .  A
N317        C321   1.351       .  A
N318        N833   1.328   1_455  A
N318        C319   1.347       .  A
C319        C320   1.380   1_455  A
C319        H322   1.082       .  S
C320        C837   1.387       .  A
C320        C392   1.478       .  S
C321        C836   1.386       .  A
C321        H323   1.082       .  S
N324        N325   1.320       .  A
N324        C328   1.353       .  A
N325        C326   1.343       .  A
C326        C327   1.383       .  A
C326        H329   1.082       .  S
C327        C328   1.391       .  A
C327        C498   1.484       .  S
C328        H330   1.082       .  S
N331        N332   1.321       .  A
N331        C335   1.343       .  A
N331       Cu339   2.084       .  S
N332        C333   1.356       .  A
N332       Cu338   2.094       .  S
C333        C334   1.392       .  A
C333        H336   1.082       .  S
C334        C335   1.385       .  A
C334        C490   1.488       .  S
C335        H337   1.082       .  S
Cu338       N341   2.096       .  S
Cu339       N865   2.084   1_455  S
Cu340       N342   2.093       .  S
Cu340       N348   2.092   1_565  S
N341        N858   1.328   1_455  A
N341        C345   1.348       .  A
N342        N857   1.326   1_565  A
N342        C343   1.349       .  A
C343        C860   1.383       .  A
C343        H346   1.082       .  S
C344        C859   1.384   1_455  A
C344        C345   1.382       .  A
C345        H347   1.082       .  S
N348        N349   1.322       .  A
N348        C352   1.354       .  A
N349        C350   1.342       .  A
N349       Cu855   2.082       .  S
C350        C351   1.382       .  A
C350        H353   1.082       .  S
C351        C352   1.391       .  A
C351        C485   1.483       .  S
C352        H354   1.082   1_545  S
N355        N356   1.321       .  A
N355        C359   1.343       .  A
N356        C357   1.354       .  A
N356       Cu362   2.090       .  S
C357        C358   1.389       .  A
C357        H360   1.082       .  S
C358        C359   1.383       .  A
C358        C477   1.479       .  S
C359        H361   1.082       .  S
Cu362       N365   2.092       .  S
Cu363       N373   2.072   1_545  S
Cu364       N366   2.092       .  S
Cu364       N372   2.090       .  S
N365        C369   1.347       .  A
N366        C367   1.348       .  A
C367        C368   1.383       .  A
C367        H370   1.082       .  S
C369        H371   1.082       .  S
N372        N373   1.322       .  A
N372        C376   1.353       .  A
N373        C374   1.341       .  A
C374        C375   1.380       .  A
C374        H377   1.082       .  S
C375        C376   1.390       .  A
C375        C481   1.478       .  S
C376        H378   1.082       .  S
N379        N380   1.321       .  A
N379        C383   1.340       .  A
N380        C381   1.357       .  A
N380       Cu386   2.101       .  S
C381        C382   1.392       .  A
C381        H384   1.082       .  S
C382        C383   1.379       .  A
C382        C473   1.480       .  S
C383        H385   1.082       .  S
Cu386       N389   2.104       .  S
Cu387       N397   2.066       .  S
Cu388       N390   2.086       .  S
Cu388       N396   2.083   1_655  S
N389        C393   1.348       .  A
N390        C391   1.348       .  A
C391        C392   1.381       .  A
C391        H394   1.082       .  S
C393        H395   1.082       .  S
N396        N397   1.321       .  A
N396        C400   1.352       .  A
N397        C398   1.341       .  A
C398        C399   1.379       .  A
C398        H401   1.082       .  S
C399        C400   1.386       .  A
C399        C469   1.470       .  S
C400        H402   1.082   1_455  S
C403        C404   1.401       .  A
C403        C408   1.417       .  A
C403        C482   1.499       .  S
C404        C405   1.401       .  A
C404        H423   1.084       .  S
C405        C406   1.420       .  A
C405        C474   1.506       .  S
C406        C407   1.428       .  A
C406        C413   1.404       .  A
C407        C408   1.424       .  A
C407        C412   1.427       .  A
C408        C409   1.406       .  A
C409        C410   1.396       .  A
C409        H419   1.082       .  S
C410        C411   1.406       .  A
C410        H420   1.081       .  S
C411        C412   1.429       .  A
C411        C418   1.423       .  A
C412        C415   1.424       .  A
C413        C414   1.395       .  A
C413        H421   1.082       .  S
C414        C415   1.407       .  A
C414        H422   1.082       .  S
C415        C416   1.416       .  A
C416        C417   1.400       .  A
C416        C470   1.498       .  S
C417        C418   1.401       .  A
C417        H424   1.083       .  S
C418        C478   1.508       .  S
C425        C426   1.402       .  A
C425        C430   1.424       .  A
C425        C506   1.509       .  S
C426        C427   1.402       .  A
C426        H445   1.083       .  S
C427        C428   1.420       .  A
C427        C514   1.503       .  S
C428        C429   1.425       .  A
C428        C435   1.406       .  A
C429        C430   1.429       .  A
C429        C434   1.431       .  A
C430        C431   1.406       .  A
C431        C432   1.397       .  A
C431        H441   1.081       .  S
C432        C433   1.407       .  A
C432        H442   1.081       .  S
C433        C434   1.426       .  A
C433        C440   1.422       .  A
C434        C437   1.428       .  A
C435        C436   1.397       .  A
C435        H443   1.082       .  S
C436        C437   1.406       .  A
C436        H444   1.082       .  S
C437        C438   1.422       .  A
C438        C439   1.403       .  A
C438        C510   1.508       .  S
C439        C440   1.404       .  A
C439        H446   1.082       .  S
C440        C502   1.506       .  S
C447        C448   1.402       .  A
C447        C452   1.420       .  A
C447        C497   1.503       .  S
C448        C449   1.403   1_565  A
C448        H467   1.082       .  S
C449        C450   1.425   1_545  A
C449        C489   1.511       .  S
C450        C451   1.429       .  A
C450        C457   1.407   1_565  A
C451        C452   1.425       .  A
C451        C456   1.431       .  A
C453        C454   1.396       .  A
C453        H463   1.082       .  S
C454        H464   1.082       .  S
C455        C456   1.429       .  A
C455        C462   1.424       .  A
C456        C459   1.425       .  A
C457        C458   1.399       .  A
C457        H465   1.082       .  S
C458        C459   1.407   1_545  A
C458        H466   1.082       .  S
C459        C460   1.421       .  A
C460        C461   1.403       .  A
C460        C486   1.502   1_565  S
C461        C462   1.401       .  A
C461        H468   1.083       .  S
C462        C494   1.510       .  S
C469        C470   1.347       .  D
C469        H987   1.087   1_455  S
C470        H472   1.086       .  S
H471        C985   1.086       .  S
C473        C474   1.352       .  D
C473        H475   1.087       .  S
C474        H476   1.085   1_455  S
C477        C478   1.353       .  D
C477        H479   1.086       .  S
C478        H996   1.085       .  S
H480        C994   1.086       .  S
C481        C482   1.349       .  D
C481        H483   1.087       .  S
C482       H1000   1.085       .  S
H484        C998   1.085       .  S
C485        C486   1.351       .  D
C486        H488   1.085   1_545  S
C489        C490   1.355       .  D
C489        H491   1.085       .  S
C493        C494   1.354       .  D
C493        H495   1.086       .  S
C497        C498   1.351       .  D
C498        H500   1.087       .  S
C501        C502   1.351       .  D
C501        H503   1.086       .  S
C502        H504   1.085       .  S
C505        C506   1.354       .  D
C505        H507   1.086       .  S
C506        H508   1.085       .  S
C509        C510   1.353       .  D
C509        H511   1.087       .  S
C510        H512   1.085       .  S
C513        C514   1.350       .  D
C513        H515   1.087       .  S
C514        H516   1.085       .  S
N517        N518   1.322       .  A
N517        C521   1.342       .  A
N517       Cu783   2.079   1_545  S
N518        C519   1.357       .  A
N518       Cu524   2.104       .  S
C519        C520   1.394       .  A
C519        H522   1.082       .  S
C520        C521   1.382       .  A
C520        C771   1.487       .  S
C521        H523   1.082       .  S
Cu524       N527   2.105       .  S
Cu525       N775   2.073       .  S
Cu526       N528   2.096       .  S
Cu526       N534   2.093       .  S
N527        C531   1.350       .  A
N528        C529   1.349       .  A
C529        H532   1.082       .  S
C530        C531   1.385       .  A
C530        C884   1.481   1_556  S
C531        H533   1.081       .  S
N534        N535   1.321       .  A
N534        C538   1.354       .  A
N535        C536   1.341       .  A
C536        C537   1.381       .  A
C536        H539   1.082       .  S
C537        C538   1.392       .  A
C537        C767   1.482       .  S
C538        H540   1.082       .  S
N541        N542   1.322       .  A
N541        C545   1.342       .  A
N542        C543   1.356       .  A
N542       Cu548   2.096       .  S
C543        C544   1.391       .  A
C543        H546   1.082       .  S
C544        C545   1.383       .  A
C544        C759   1.485       .  S
C545        H547   1.082       .  S
Cu548       N551   2.098       .  S
Cu549       N817   2.068       .  S
Cu550       N552   2.088       .  S
Cu550       N558   2.086       .  S
N551        C555   1.349       .  A
N552        C553   1.346       .  A
C553        C812   1.382       .  A
C553        H556   1.082       .  S
C554        C811   1.382       .  A
C554        C602   1.472       .  S
C555        H557   1.081       .  S
N558        N559   1.321       .  A
N558        C562   1.351       .  A
N559        C560   1.343       .  A
N559       Cu807   2.076       .  S
C560        C561   1.382       .  A
C560        H563   1.082       .  S
C561        C562   1.388       .  A
C561        C763   1.474       .  S
C562        H564   1.082       .  S
N565        N566   1.323       .  A
N565        C569   1.341       .  A
N566        C567   1.359       .  A
N566       Cu572   2.113       .  S
C567        C568   1.395       .  A
C567        H570   1.082       .  S
C568        C569   1.381       .  A
C568        C751   1.488       .  S
C569        H571   1.082       .  S
Cu572       N833   2.115       .  S
Cu573       N583   2.078       .  S
Cu574       N834   2.090       .  S
Cu574       N582   2.088       .  S
N575        C579   1.352       .  A
N575       Cu830   2.112       .  S
N576        C577   1.347       .  A
N576       Cu832   2.093       .  S
C577        C578   1.383       .  A
C577        H580   1.082       .  S
C578        C650   1.481   1_565  S
C579        H581   1.082       .  S
N582        N583   1.320       .  A
N582        C586   1.353       .  A
N583        C584   1.343       .  A
C584        C585   1.384       .  A
C584        H587   1.082       .  S
C585        C586   1.391       .  A
C585        C756   1.484       .  S
C586        H588   1.082       .  S
N589        N590   1.320       .  A
N589        C593   1.342       .  A
N589       Cu597   2.081       .  S
N590        C591   1.354       .  A
N590       Cu596   2.083       .  S
C591        C592   1.391       .  A
C591        H594   1.082       .  S
C592        C593   1.383       .  A
C592        C748   1.483       .  S
C593        H595   1.082       .  S
Cu596       N599   2.086       .  S
Cu598       N600   2.102       .  S
Cu598       N606   2.100       .  S
N599        C603   1.346       .  A
N600        C601   1.350       .  A
C601        H604   1.082       .  S
C602        C603   1.379       .  A
C603        H605   1.082       .  S
N606        N607   1.323       .  A
N606        C610   1.355       .  A
N607        C608   1.342       .  A
C608        C609   1.381       .  A
C608        H611   1.082       .  S
C609        C610   1.392       .  A
C609        C743   1.483       .  S
C610        H612   1.082       .  S
N613        N614   1.322       .  A
N613        C617   1.341       .  A
N613       Cu879   2.069       .  S
N614        C615   1.355       .  A
N614       Cu620   2.104       .  S
C615        C616   1.392       .  A
C615        H618   1.082       .  S
C616        C617   1.379       .  A
C616        C735   1.479       .  S
C617        H619   1.082       .  S
Cu620       N623   2.107       .  S
Cu621       N871   2.072       .  S
Cu621       N631   2.071       .  S
Cu622       N624   2.089       .  S
Cu622       N630   2.087       .  S
N623        N882   1.327   1_545  A
N623        C627   1.351       .  A
N624        N881   1.327       .  A
N624        C625   1.346       .  A
C625        C626   1.382       .  A
C625        H628   1.082       .  S
C626        C885   1.382       .  A
C626        C788   1.472   1_554  S
C627        C884   1.387       .  A
C627        H629   1.082       .  S
N630        N631   1.321       .  A
N630        C634   1.353       .  A
N631        C632   1.340       .  A
C632        C633   1.379       .  A
C632        H635   1.082       .  S
C633        C634   1.389       .  A
C633        C739   1.475       .  S
C634        H636   1.082       .  S
N637        N638   1.321       .  A
N637        C641   1.343       .  A
N637       Cu903   2.077       .  S
N638        C639   1.353       .  A
N638       Cu644   2.090       .  S
C639        C640   1.388       .  A
C639        H642   1.082       .  S
C640        C641   1.381       .  A
C640        C731   1.476       .  S
C641        H643   1.082       .  S
Cu644       N647   2.092       .  S
Cu645       N895   2.075       .  S
Cu645       N655   2.074   1_565  S
Cu646       N648   2.113       .  S
Cu646       N654   2.110       .  S
N647        N906   1.327       .  A
N647        C651   1.346       .  A
N648        N905   1.328   1_545  A
N648        C649   1.353       .  A
C649        C650   1.388       .  A
C649        H652   1.082       .  S
C650        C909   1.381   1_545  A
C651        C908   1.382       .  A
C651        H653   1.082       .  S
N654        N655   1.322       .  A
N654        C658   1.358       .  A
N655        C656   1.340       .  A
C656        C657   1.379       .  A
C656        H659   1.082       .  S
C657        C658   1.395       .  A
C657        C727   1.485       .  S
C658        H660   1.082       .  S
C661        C662   1.401       .  A
C661        C666   1.416       .  A
C661        C740   1.499       .  S
C662        C663   1.400       .  A
C662        H681   1.083       .  S
C663        C664   1.421       .  A
C663        C732   1.503       .  S
C664        C665   1.426       .  A
C664        C671   1.406       .  A
C665        C666   1.425       .  A
C665        C670   1.428       .  A
C666        C667   1.404       .  A
C667        C668   1.394       .  A
C667        H677   1.082       .  S
C668        C669   1.407       .  A
C668        H678   1.081       .  S
C669        C670   1.426       .  A
C669        C676   1.419       .  A
C670        C673   1.426       .  A
C671        C672   1.397       .  A
C671        H679   1.081       .  S
C672        C673   1.407       .  A
C672        H680   1.081       .  S
C673        C674   1.422       .  A
C674        C675   1.406       .  A
C674        C728   1.509       .  S
C675        C676   1.404       .  A
C675        H682   1.083       .  S
C676        C736   1.505       .  S
C683        C684   1.403       .  A
C683        C688   1.420       .  A
C683        C764   1.500       .  S
C684        C685   1.402       .  A
C684        H703   1.084       .  S
C685        C686   1.422       .  A
C685        C772   1.507       .  S
C686        C687   1.428       .  A
C686        C693   1.405       .  A
C687        C688   1.424       .  A
C687        C692   1.430       .  A
C688        C689   1.408       .  A
C689        C690   1.396       .  A
C689        H699   1.081       .  S
C690        C691   1.405       .  A
C690        H700   1.082       .  S
C691        C692   1.428       .  A
C691        C698   1.422       .  A
C692        C695   1.425       .  A
C693        C694   1.396       .  A
C693        H701   1.082       .  S
C694        C695   1.407       .  A
C694        H702   1.082       .  S
C695        C696   1.419       .  A
C696        C697   1.403       .  A
C696        C768   1.503       .  S
C697        C698   1.403       .  A
C697        H704   1.082       .  S
C698        C760   1.508       .  S
C705        C706   1.403       .  A
C705        C710   1.423       .  A
C705        C755   1.505       .  S
C706        C707   1.402       .  A
C706        H725   1.083       .  S
C707        C708   1.420       .  A
C707        C747   1.505       .  S
C708        C709   1.427       .  A
C708        C715   1.405       .  A
C709        C710   1.426       .  A
C709        C714   1.430       .  A
C710        C969   1.408       .  A
C711        C968   1.406       .  A
C711        C712   1.399       .  A
C711        H721   1.082       .  S
C712        C971   1.407       .  A
C712        H722   1.082       .  S
C713        C970   1.405       .  A
C713        C714   1.428       .  A
C713        C720   1.423       .  A
C714        C717   1.426       .  A
C715        C716   1.396       .  A
C715        H723   1.082       .  S
C716        C717   1.406       .  A
C716        H724   1.082       .  S
C717        C718   1.420       .  A
C718        C719   1.402       .  A
C718        C744   1.504       .  S
C719        C720   1.403       .  A
C719        H726   1.083       .  S
C720        C752   1.510       .  S
C727        C728   1.351       .  D
C728        H730   1.085       .  S
C731        C732   1.351       .  D
C731        H733   1.086       .  S
C732        H734   1.086       .  S
C735        C736   1.348       .  D
C735        H737   1.086       .  S
C739        C740   1.348       .  D
C739        H741   1.087       .  S
C743        C744   1.350       .  D
C743       H1003   1.087       .  S
C744        H746   1.085       .  S
H745       C1001   1.087       .  S
C747        C748   1.351       .  D
C747        H749   1.085       .  S
C748       H1008   1.087       .  S
H750       C1006   1.087       .  S
C751        C752   1.353       .  D
C751        H753   1.087       .  S
C752       H1012   1.085       .  S
H754       C1010   1.085       .  S
C755        C756   1.353       .  D
C755       H1015   1.085       .  S
C756        H758   1.086       .  S
H757       C1013   1.085       .  S
C759        C760   1.353       .  D
C759        H761   1.086       .  S
C760        H762   1.085       .  S
C763        C764   1.348       .  D
C763        H765   1.086       .  S
C764        H766   1.086       .  S
C767        C768   1.350       .  D
C767        H769   1.087       .  S
C768        H770   1.085       .  S
C771        C772   1.352       .  D
C771        H773   1.087       .  S
C772        H774   1.085       .  S
N775        N776   1.322       .  A
N775        C779   1.340       .  A
N776        C777   1.355       .  A
N776       Cu782   2.097       .  S
C777        C778   1.392       .  A
C777        H780   1.082       .  S
C778        C779   1.379       .  A
C778       C1029   1.481       .  S
C779        H781   1.082       .  S
Cu782       N785   2.100       .  S
Cu784       N786   2.095       .  S
Cu784       N792   2.093       .  S
N785        C789   1.349       .  A
N786        C787   1.348       .  A
C787        H790   1.082       .  S
C788        C789   1.384       .  A
C789        H791   1.082       .  S
N792        N793   1.321       .  A
N792        C796   1.355       .  A
N793        C794   1.343       .  A
C794        C795   1.384       .  A
C794        H797   1.082       .  S
C795        C796   1.391       .  A
C795       C1025   1.486       .  S
C796        H798   1.082       .  S
N799        N800   1.321       .  A
N799        C803   1.339       .  A
N800        C801   1.354       .  A
N800       Cu806   2.091       .  S
C801        C802   1.389       .  A
C801        H804   1.082       .  S
C802        C803   1.376       .  A
C802       C1017   1.472       .  S
C803        H805   1.082       .  S
Cu806       N809   2.094       .  S
Cu808       N810   2.091       .  S
Cu808       N816   2.088       .  S
N809        C813   1.348       .  A
N810        C811   1.347       .  A
C811        H814   1.082       .  S
C812        C860   1.476   1_545  S
C813        H815   1.081       .  S
N816        N817   1.321       .  A
N816        C820   1.353       .  A
N817        C818   1.340       .  A
C818        C819   1.378       .  A
C818        H821   1.082       .  S
C819        C820   1.388       .  A
C819       C1021   1.473       .  S
C820        H822   1.082       .  S
N823        N824   1.323       .  A
N823        C827   1.341       .  A
N824        C825   1.357       .  A
N824       Cu830   2.110       .  S
C825        C826   1.394       .  A
C825        H828   1.082       .  S
C826        C827   1.381       .  A
C826       C1009   1.487       .  S
C827        H829   1.082       .  S
Cu831       N841   2.094       .  S
Cu832       N840   2.091       .  S
N833        C837   1.351       .  A
N834        C835   1.346       .  A
C835        C836   1.382       .  A
C835        H838   1.082       .  S
C836        C908   1.478       .  S
C837        H839   1.082       .  S
N840        N841   1.321       .  A
N840        C844   1.354       .  A
N841        C842   1.345       .  A
C842        C843   1.387       .  A
C842        H845   1.082       .  S
C843        C844   1.391       .  A
C843       C1014   1.490       .  S
C844        H846   1.082       .  S
N847        N848   1.321       .  A
N847        C851   1.343       .  A
N847       Cu855   2.081       .  S
N848        C849   1.354       .  A
N848       Cu854   2.089       .  S
C849        C850   1.390       .  A
C849        H852   1.082       .  S
C850        C851   1.383       .  A
C850       C1006   1.483       .  S
C851        H853   1.082       .  S
Cu854       N857   2.092       .  S
Cu856       N858   2.105       .  S
Cu856       N864   2.103       .  S
N857        C861   1.347       .  A
N858        C859   1.349       .  A
C859        H862   1.082       .  S
C860        C861   1.383   1_565  A
C861        H863   1.082       .  S
N864        N865   1.322       .  A
N864        C868   1.358       .  A
N865        C866   1.341       .  A
C866        C867   1.382       .  A
C866        H869   1.082       .  S
C867        C868   1.394       .  A
C867       C1001   1.488       .  S
C868        H870   1.082       .  S
N871        N872   1.321       .  A
N871        C875   1.341       .  A
N872        C873   1.354       .  A
N872       Cu878   2.090       .  S
C873        C874   1.389       .  A
C873        H876   1.082       .  S
C874        C875   1.380       .  A
C874        C993   1.476       .  S
C875        H877   1.082       .  S
Cu878       N881   2.093       .  S
Cu879       N889   2.070   1_545  S
Cu880       N882   2.099       .  S
Cu880       N888   2.097       .  S
N881        C885   1.348       .  A
N882        C883   1.348       .  A
C883        C884   1.383   1_565  A
C883        H886   1.082       .  S
C885        H887   1.082       .  S
N888        N889   1.321       .  A
N888        C892   1.355       .  A
N889        C890   1.341       .  A
C890        C891   1.381       .  A
C890        H893   1.082       .  S
C891        C892   1.392       .  A
C891        C997   1.482       .  S
C892        H894   1.082       .  S
N895        N896   1.320       .  A
N895        C899   1.343       .  A
N896        C897   1.353       .  A
N896       Cu902   2.092       .  S
C897        C898   1.390       .  A
C897        H900   1.082       .  S
C898        C899   1.382       .  A
C898        C989   1.478       .  S
C899        H901   1.082       .  S
Cu902       N905   2.093       .  S
Cu903       N913   2.076       .  S
Cu904       N906   2.104       .  S
Cu904       N912   2.101       .  S
N905        C909   1.346       .  A
N906        C907   1.351       .  A
C907        C908   1.386       .  A
C907        H910   1.082       .  S
C909        H911   1.082       .  S
N912        N913   1.322       .  A
N912        C916   1.356       .  A
N913        C914   1.341       .  A
C914        C915   1.381       .  A
C914        H917   1.082       .  S
C915        C916   1.392       .  A
C915        C985   1.483       .  S
C916        H918   1.082       .  S
C919        C920   1.402       .  A
C919        C924   1.421       .  A
C919        C998   1.505       .  S
C920        C921   1.401       .  A
C920        H939   1.083       .  S
C921        C922   1.421       .  A
C921        C990   1.505       .  S
C922        C923   1.427       .  A
C922        C929   1.406       .  A
C923        C924   1.427       .  A
C923        C928   1.430       .  A
C924        C925   1.406       .  A
C925        C926   1.397       .  A
C925        H935   1.082       .  S
C926        C927   1.406       .  A
C926        H936   1.082       .  S
C927        C928   1.426       .  A
C927        C934   1.420       .  A
C928        C931   1.428       .  A
C929        C930   1.396       .  A
C929        H937   1.081       .  S
C930        C931   1.405       .  A
C930        H938   1.082       .  S
C931        C932   1.421       .  A
C932        C933   1.401       .  A
C932        C986   1.508       .  S
C933        C934   1.402       .  A
C933        H940   1.083       .  S
C934        C994   1.503       .  S
C941        C942   1.400       .  A
C941        C946   1.417       .  A
C941       C1022   1.500       .  S
C942        C943   1.401       .  A
C942        H961   1.084       .  S
C943        C944   1.419       .  A
C943       C1030   1.502       .  S
C944        C945   1.425       .  A
C944        C951   1.406       .  A
C945        C946   1.427       .  A
C945        C950   1.427       .  A
C946        C947   1.405       .  A
C947        C948   1.393       .  A
C947        H957   1.082       .  S
C948        C949   1.406       .  A
C948        H958   1.082       .  S
C949        C950   1.424       .  A
C949        C956   1.414       .  A
C950        C953   1.428       .  A
C951        C952   1.398       .  A
C951        H959   1.082       .  S
C952        C953   1.406       .  A
C952        H960   1.081       .  S
C953        C954   1.423       .  A
C954        C955   1.402       .  A
C954       C1026   1.508       .  S
C955        C956   1.402       .  A
C955        H962   1.083       .  S
C956       C1018   1.497       .  S
C963        C964   1.402       .  A
C963        C968   1.425       .  A
C963       C1013   1.510       .  S
C964        C965   1.402       .  A
C964        H983   1.083       .  S
C965        C966   1.421       .  A
C965       C1005   1.504   1_565  S
C966        C967   1.426       .  A
C966        C973   1.407   1_565  A
C967        C968   1.429       .  A
C967        C972   1.432       .  A
C969        C970   1.398       .  A
C969        H979   1.081       .  S
C970        H980   1.082       .  S
C971        C972   1.426       .  A
C971        C978   1.422       .  A
C972        C975   1.428       .  A
C973        C974   1.397       .  A
C973        H981   1.082       .  S
C974        C975   1.405   1_545  A
C974        H982   1.082       .  S
C975        C976   1.423       .  A
C976        C977   1.403       .  A
C976       C1002   1.510   1_565  S
C977        C978   1.404       .  A
C977        H984   1.083       .  S
C978       C1010   1.507       .  S
C985        C986   1.353       .  D
C986        H988   1.085       .  S
C989        C990   1.352       .  D
C989        H991   1.086       .  S
C990        H992   1.086       .  S
C993        C994   1.351       .  D
C993        H995   1.087       .  S
C997        C998   1.351       .  D
C997        H999   1.087       .  S
C1001      C1002   1.353       .  D
C1002      H1004   1.085   1_545  S
C1005      C1006   1.351       .  D
C1005      H1007   1.085   1_545  S
C1009      C1010   1.352       .  D
C1009      H1011   1.087       .  S
C1013      C1014   1.356       .  D
C1014      H1016   1.086       .  S
C1017      C1018   1.345       .  D
C1017      H1019   1.087       .  S
C1018      H1020   1.086       .  S
C1021      C1022   1.348       .  D
C1021      H1023   1.087       .  S
C1022      H1024   1.086       .  S
C1025      C1026   1.354       .  D
C1025      H1027   1.086       .  S
C1026      H1028   1.085       .  S
C1029      C1030   1.350       .  D
C1029      H1031   1.087       .  S
C1030      H1032   1.085       .  S
