geometry optimzed in LAMMPS
_audit_creation_date              2020-12-01 
_audit_creation_method            'lammps2cif' 
_symmetry_space_group_name_H-M    'P1' 
_symmetry_Int_Tables_number       1 
_symmetry_cell_setting            triclinic 
loop_ 
_symmetry_equiv_pos_as_xyz 
  x,y,z 
_cell_length_a                    39.92970874 
_cell_length_b                    39.930552062874966 
_cell_length_c                    39.9405808363082 
_cell_angle_alpha                 89.79634655021644 
_cell_angle_beta                  90.01088942534045 
_cell_angle_gamma                 90.19279679101584 
loop_ 
_atom_site_label 
_atom_site_type_symbol 
_atom_site_fract_x 
_atom_site_fract_y 
_atom_site_fract_z 
_atom_site_charge 
N1          N  0.79233158  0.27263086  0.44841732    -0.24900
N2          N  0.82273702  0.27321264  0.43494805    -0.32800
C3          C  0.82080106  0.27311771  0.40131699     0.03400
C4          C  0.78775280  0.27259973  0.39180187     0.09500
C5          C  0.77011960  0.27219521  0.42235383    -0.03600
H6          H  0.84225871  0.27447568  0.38481107     0.10100
H7          H  0.74319236  0.27210297  0.42525400     0.11300
Cu8        Cu  0.86741623  0.27984175  0.45987591     0.44200
Cu9        Cu  0.78476251  0.27356689  0.50311606     0.42000
Cu10       Cu  0.86356835  0.28919374  0.54587897     0.43900
N11         N  0.90514747  0.30350157  0.48583693    -0.32300
N12         N  0.90309380  0.30773359  0.51846609    -0.26500
C13         C  0.92492507  0.33153958  0.52788478    -0.02600
C14         C  0.94141147  0.34309770  0.49956556     0.09600
C15         C  0.92856539  0.32437399  0.47343898     0.03400
H16         H  0.92576361  0.34209778  0.55276087     0.11000
H17         H  0.93264923  0.32879628  0.44701992     0.10100
N18         N  0.82001019  0.27965665  0.57171230    -0.33700
N19         N  0.79011571  0.27488304  0.55806882    -0.25900
C20         C  0.76789630  0.27189833  0.58402380    -0.01200
C21         C  0.78508786  0.27505217  0.61476345     0.07500
C22         C  0.81787483  0.27981083  0.60533478     0.05600
H23         H  0.74126216  0.26796242  0.58094639     0.10700
H24         H  0.83895787  0.28375976  0.62190045     0.09500
N25         N  0.54934955  0.79288769  0.26697543    -0.24900
N26         N  0.56263443  0.81866126  0.28307886    -0.32800
C27         C  0.59615736  0.81694461  0.28351109     0.03400
C28         C  0.60613070  0.78876179  0.26698530     0.09500
C29         C  0.57576053  0.77374267  0.25655313    -0.03600
H30         H  0.61226513  0.83511809  0.29556870     0.10100
H31         H  0.57325350  0.75064130  0.24269911     0.11300
Cu32       Cu  0.53762586  0.85589059  0.30663784     0.44200
Cu33       Cu  0.49423709  0.78859180  0.26273670     0.42000
Cu34       Cu  0.45256828  0.85781418  0.30928055     0.43900
N35         N  0.51360248  0.89052872  0.33475765    -0.32300
N36         N  0.48071024  0.89158587  0.33587227    -0.26500
C37         C  0.47133497  0.91505948  0.35786787    -0.02600
C38         C  0.50015016  0.92931140  0.37109934     0.09600
C39         C  0.52644954  0.91301279  0.35604340     0.03400
H40         H  0.44564414  0.91996184  0.36483784     0.11000
H41         H  0.55288194  0.91625306  0.36113669     0.10100
N42         N  0.42678931  0.82167736  0.28338160    -0.33700
N43         N  0.43946023  0.79612169  0.26645314    -0.25900
C44         C  0.41267724  0.77839922  0.25434413    -0.01200
C45         C  0.38260741  0.79388258  0.26443926     0.07500
C46         C  0.39314878  0.82101146  0.28259139     0.05600
H47         H  0.41474289  0.75585227  0.23958162     0.10700
H48         H  0.37732717  0.83913121  0.29491563     0.09500
N49         N  0.27772610  0.45130383  0.77143749    -0.24900
N50         N  0.30653031  0.43775220  0.78090244    -0.32800
C51         C  0.30463295  0.40413123  0.78045485     0.03400
C52         C  0.27320948  0.39448529  0.77038011     0.09500
C53         C  0.25652079  0.42513489  0.76467566    -0.03600
H54         H  0.32481390  0.38769339  0.78792255     0.10100
H55         H  0.23080307  0.42799954  0.75669004     0.11300
Cu56       Cu  0.34794504  0.46260964  0.79863947     0.44200
Cu57       Cu  0.27145930  0.50642340  0.77030227     0.42000
Cu58       Cu  0.34201231  0.54770783  0.81233150     0.43900
N59         N  0.38344660  0.48778947  0.82602772    -0.32300
N60         N  0.38080511  0.52014681  0.83162161    -0.26500
C61         C  0.40443253  0.52960118  0.85355019    -0.02600
C62         C  0.42281295  0.50153255  0.86229885     0.09600
C63         C  0.40880996  0.47546540  0.84435218     0.03400
H64         H  0.40637281  0.55451048  0.86391180     0.11000
H65         H  0.41498998  0.44918680  0.84632301     0.10100
N66         N  0.30360622  0.57420068  0.79084512    -0.33700
N67         N  0.27741461  0.56141471  0.77488663    -0.25900
C68         C  0.25887277  0.58812038  0.76395716    -0.01200
C69         C  0.27450372  0.61833985  0.77380428     0.07500
C70         C  0.30257617  0.60786759  0.79064854     0.05600
H71         H  0.23588722  0.58591886  0.74979707     0.10700
H72         H  0.32143412  0.62376435  0.80191720     0.09500
N73         N  0.22065948  0.29922830  0.05273852    -0.24900
N74         N  0.20546270  0.32536027  0.06629732    -0.32800
C75         C  0.20698817  0.32397502  0.09992745     0.03400
C76         C  0.22402514  0.29571346  0.10954868     0.09500
C77         C  0.23246689  0.28034522  0.07887290    -0.03600
H78         H  0.19660251  0.34276097  0.11636432     0.10100
H79         H  0.24635790  0.25732860  0.07597214     0.11300
Cu80       Cu  0.18376169  0.36426460  0.04071675     0.44200
Cu81       Cu  0.22328156  0.29397787  0.99756259     0.42000
Cu82       Cu  0.19248016  0.37000365  0.95414079     0.43900
N83         N  0.16416184  0.40356114  0.01408134    -0.32300
N84         N  0.16786138  0.40622385  0.98139936    -0.26500
C85         C  0.14907028  0.43178694  0.97023199    -0.02600
C86         C  0.13264340  0.44569154  0.99730987     0.09600
C87         C  0.14297094  0.42722721  0.02481371     0.03400
H88         H  0.14529782  0.43784688  0.94408929     0.11000
H89         H  0.13379392  0.42886178  0.05021756     0.10100
N90         N  0.21003194  0.32861185  0.92874031    -0.33700
N91         N  0.22082499  0.30028845  0.94243618    -0.25900
C92         C  0.22863749  0.27942719  0.91644476    -0.01200
C93         C  0.22232338  0.29569582  0.88562897     0.07500
C94         C  0.21063893  0.32663954  0.89506677     0.05600
H95         H  0.23816644  0.25428600  0.91954367     0.10700
H96         H  0.20278112  0.34658245  0.87844643     0.09500
N97         N  0.28152248  0.06556084  0.20547644    -0.24900
N98         N  0.28723291  0.07961847  0.17585904    -0.32800
C99         C  0.28610795  0.11324526  0.17811754     0.03400
C100        C  0.27941877  0.12221450  0.21065343     0.09500
C101        C  0.27658997  0.09122737  0.22754582    -0.03600
H102        H  0.29030980  0.13014148  0.15728827     0.10100
H103        H  0.27132659  0.08778477  0.25389315     0.11300
Cu104      Cu  0.29960341  0.05475664  0.13245852     0.44200
Cu105      Cu  0.28114569  0.01049790  0.21152641     0.42000
Cu106      Cu  0.30741504  0.96752341  0.13472560     0.43900
N107        N  0.32387061  0.02886283  0.09520922    -0.32300
N108        N  0.32738019  0.99606375  0.09642301    -0.26500
C109        C  0.35051953  0.98677553  0.07392252    -0.02600
C110        C  0.36239394  0.01534389  0.05796193     0.09600
C111        C  0.34460230  0.04147782  0.07183260     0.03400
H112        H  0.36026993  0.96162409  0.07202546     0.11000
H113        H  0.34927291  0.06793402  0.06808555     0.10100
N114        N  0.29147995  0.94174148  0.17676162    -0.33700
N115        N  0.28211005  0.95548772  0.20545490    -0.25900
C116        C  0.27387301  0.92962145  0.22651218    -0.01200
C117        C  0.27838582  0.89877978  0.20997650     0.07500
C118        C  0.28952960  0.90807730  0.17865334     0.05600
H119        H  0.26498667  0.93283681  0.25186506     0.10700
H120        H  0.29575081  0.89139512  0.15830938     0.09500
N121        N  0.77572052  0.71930061  0.55288116    -0.24900
N122        N  0.78297287  0.68998854  0.56674756    -0.32800
C123        C  0.78191926  0.69202520  0.60036120     0.03400
C124        C  0.77374669  0.72412705  0.60952676     0.09500
C125        C  0.76984498  0.74100302  0.57866254    -0.03600
H126        H  0.78776334  0.67150952  0.61711693     0.10100
H127        H  0.76369935  0.76716527  0.57538996     0.11300
Cu128      Cu  0.79906712  0.64806670  0.54166851     0.44200
Cu129      Cu  0.77618533  0.72521519  0.49796109     0.42000
Cu130      Cu  0.81721744  0.65315552  0.45622847     0.43900
N131        N  0.82730552  0.61216873  0.51802757    -0.32300
N132        N  0.83490216  0.61419402  0.48595296    -0.26500
C133        C  0.85743144  0.59027437  0.47866736    -0.02600
C134        C  0.86443433  0.57254267  0.50782379     0.09600
C135        C  0.84485776  0.58720014  0.53220117     0.03400
H136        H  0.86963606  0.58777097  0.45463179     0.11000
H137        H  0.84519876  0.58174948  0.55873129     0.10100
N138        N  0.79612610  0.69292272  0.42996115    -0.33700
N139        N  0.78082979  0.71919014  0.44327373    -0.25900
C140        C  0.76980618  0.73849259  0.41715699    -0.01200
C141        C  0.77875056  0.72349974  0.38654331     0.07500
C142        C  0.79531160  0.69481957  0.39623712     0.05600
H143        H  0.75605861  0.76158866  0.42005555     0.10700
H144        H  0.80583734  0.67615279  0.37976380     0.09500
N145        N  0.21375547  0.73228351  0.05066708    -0.24900
N146        N  0.18397088  0.72446708  0.06334194    -0.32800
C147        C  0.18489712  0.72497803  0.09701720     0.03400
C148        C  0.21657164  0.73343695  0.10748955     0.09500
C149        C  0.23447591  0.73803914  0.07736109    -0.03600
H150        H  0.16367595  0.71929540  0.11292594     0.10100
H151        H  0.26058033  0.74502291  0.07518354     0.11300
Cu152      Cu  0.14142006  0.71105720  0.03719224     0.44200
Cu153      Cu  0.22252449  0.73394409  0.99602466     0.42000
Cu154      Cu  0.14560976  0.71330125  0.95171461     0.43900
N155        N  0.10365502  0.69112815  0.00810213    -0.32300
N156        N  0.10555027  0.69221941  0.97522995    -0.26500
C157        C  0.08234941  0.67186134  0.96196155    -0.02600
C158        C  0.06489592  0.65705266  0.98786184     0.09600
C159        C  0.07891847  0.67002969  0.01693654     0.03400
H160        H  0.08080388  0.66555296  0.93569720     0.11000
H161        H  0.07425093  0.66205497  0.04241761     0.10100
N162        N  0.18872835  0.72490070  0.92711690    -0.33700
N163        N  0.21800749  0.73224004  0.94091470    -0.25900
C164        C  0.23992627  0.73700480  0.91494013    -0.01200
C165        C  0.22303035  0.73206366  0.88424791     0.07500
C166        C  0.19089215  0.72453261  0.89360060     0.05600
H167        H  0.26607586  0.74345595  0.91795840     0.10700
H168        H  0.17016851  0.71889735  0.87706671     0.09500
O169        O  0.94886208  0.53275688  0.97571106    -0.70500
O170        O  0.04088969  0.49774731  0.98849876    -0.71500
O171        O  0.97659622  0.46799166  0.98382220    -0.60100
O172        O  0.01292893  0.56248624  0.98211357    -0.68600
O173        O  0.00620762  0.56508833  0.03725731    -0.68100
O174        O  0.97138992  0.47239403  0.03901503    -0.59400
O175        O  0.03557980  0.50097308  0.04372489    -0.71900
O176        O  0.94201500  0.53622411  0.03078477    -0.70700
Cu177      Cu  0.99504365  0.51515865  0.98054678     1.04600
Cu178      Cu  0.98856137  0.51881099  0.03958731     1.04300
C179        C  0.93093623  0.54019258  0.00095622     0.95600
C180        C  0.05274685  0.49336869  0.01784124     0.94800
C181        C  0.96835486  0.45550154  0.01223248     0.86900
C182        C  0.01533308  0.57845874  0.00976862     0.93200
N183        N  0.70867662  0.95385798  0.24070450    -0.24900
N184        N  0.67801542  0.94175251  0.23624192    -0.32800
C185        C  0.67818284  0.90806230  0.23639504     0.03400
C186        C  0.71033379  0.89688299  0.24100395     0.09500
C187        C  0.72931054  0.92667879  0.24376396    -0.03600
H188        H  0.65632088  0.89266754  0.23180152     0.10100
H189        H  0.75615964  0.92828118  0.24695464     0.11300
Cu190      Cu  0.63662104  0.96847204  0.22193692     0.44200
Cu191      Cu  0.71816024  0.00859083  0.24007051     0.42000
Cu192      Cu  0.65221197  0.04951495  0.19400293     0.43900
N193        N  0.60639367  0.99120057  0.18718235    -0.32300
N194        N  0.61286266  0.02176322  0.17643135    -0.26500
C195        C  0.59367608  0.02848367  0.14978384    -0.02600
C196        C  0.57435512  0.00045428  0.14313951     0.09600
C197        C  0.58312397  0.97719611  0.16727287     0.03400
H198        H  0.59609105  0.05087248  0.13463754     0.11000
H199        H  0.57531808  0.95126579  0.16855799     0.10100
N200        N  0.69007084  0.07637798  0.21565054    -0.33700
N201        N  0.71465598  0.06363311  0.23390992    -0.25900
C202        C  0.73263091  0.09036573  0.24579657    -0.01200
C203        C  0.71826886  0.12054114  0.23405939     0.07500
C204        C  0.69158317  0.11001168  0.21512758     0.05600
H205        H  0.75415524  0.08823383  0.26209946     0.10700
H206        H  0.67367497  0.12585433  0.20238576     0.09500
O207        O  0.48956447  0.03044280  0.94896622    -0.70500
O208        O  0.52167437  0.04027964  0.04295893    -0.71500
O209        O  0.55247135  0.04207051  0.97963346    -0.60100
O210        O  0.45876557  0.02852864  0.01249157    -0.68600
O211        O  0.46739165  0.97369204  0.01555389    -0.68100
O212        O  0.56115628  0.98723437  0.98271863    -0.59400
O213        O  0.53024968  0.98542078  0.04633773    -0.71900
O214        O  0.49814243  0.97558314  0.95188688    -0.70700
Cu215      Cu  0.50534139  0.03723973  0.99590843     1.04600
Cu216      Cu  0.51457574  0.97853979  0.99920591     1.04300
C217        C  0.48818946  0.00137099  0.93579131     0.95600
C218        C  0.53126429  0.01458918  0.05935846     0.94800
C219        C  0.57156817  0.01679271  0.97598400     0.86900
C220        C  0.44831209  0.99898579  0.01927060     0.93200
N221        N  0.77682239  0.28964613  0.05857982    -0.24900
N222        N  0.80315990  0.30560964  0.07109408    -0.32800
C223        C  0.80181352  0.30621089  0.10476827     0.03400
C224        C  0.77346049  0.28976068  0.11548516     0.09500
C225        C  0.75797131  0.27941658  0.08541287    -0.03600
H226        H  0.82085233  0.31733643  0.12051791     0.10100
H227        H  0.73499032  0.26515943  0.08340667     0.11300
Cu228      Cu  0.84277820  0.32473979  0.04406215     0.44200
Cu229      Cu  0.77121211  0.28355657  0.00375243     0.42000
Cu230      Cu  0.84982819  0.30563429  0.96017362     0.43900
N231        N  0.88221132  0.34185520  0.01548733    -0.32300
N232        N  0.88511707  0.33450515  0.98352203    -0.26500
C233        C  0.90941738  0.35347936  0.96981667    -0.02600
C234        C  0.92255420  0.37369465  0.99459000     0.09600
C235        C  0.90477061  0.36544331  0.02334991     0.03400
H236        H  0.91491656  0.35468054  0.94332640     0.11000
H237        H  0.90562265  0.37780338  0.04736854     0.10100
N238        N  0.80787508  0.28976614  0.93543007    -0.33700
N239        N  0.77821783  0.28277370  0.94873478    -0.25900
C240        C  0.75699856  0.27708930  0.92237254    -0.01200
C241        C  0.77464795  0.28094512  0.89191573     0.07500
C242        C  0.80654824  0.28883586  0.90184484     0.05600
H243        H  0.73067255  0.27117698  0.92496156     0.10700
H244        H  0.82748999  0.29463157  0.88561522     0.09500
C245        C  0.72632317  0.73785808  0.26865632     0.47900
H246        H  0.71050849  0.72108215  0.28435549    -0.01200
C247        C  0.76310674  0.77718924  0.23177863     0.47900
H248        H  0.77887991  0.79397822  0.21605376    -0.01200
C249        C  0.70896066  0.77170099  0.25995443    -0.14900
C250        C  0.76030204  0.74714294  0.28555016    -0.14600
C251        C  0.73575612  0.72227065  0.23430380    -0.15000
C252        C  0.72983079  0.79379582  0.24320933    -0.15000
C253        C  0.78087781  0.76557350  0.26456565    -0.14500
C254        C  0.75259654  0.74435446  0.21350321    -0.14900
N255        N  0.71414324  0.45401834  0.22332181    -0.24900
N256        N  0.68608786  0.44036970  0.21181817    -0.32800
C257        C  0.68796432  0.40674698  0.21259244     0.03400
C258        C  0.71852908  0.39731840  0.22520277     0.09500
C259        C  0.73474992  0.42803605  0.23190527    -0.03600
H260        H  0.66805093  0.39016347  0.20458896     0.10100
H261        H  0.75957337  0.43108522  0.24231970     0.11300
Cu262      Cu  0.64429087  0.46548860  0.19517904     0.44200
Cu263      Cu  0.72007113  0.50890485  0.22567076     0.42000
Cu264      Cu  0.64046259  0.55076719  0.20549089     0.43900
N265        N  0.60402503  0.49269635  0.17813134    -0.32300
N266        N  0.60219655  0.52522679  0.18299559    -0.26500
C267        C  0.57717100  0.53786591  0.16450102    -0.02600
C268        C  0.56275409  0.51198523  0.14672851     0.09600
C269        C  0.58020294  0.48349451  0.15628531     0.03400
H270        H  0.57258353  0.56436789  0.16106426     0.11000
H271        H  0.57824764  0.45866680  0.14573654     0.10100
N272        N  0.68341206  0.57657979  0.21639890    -0.33700
N273        N  0.71312838  0.56362296  0.22349545    -0.25900
C274        C  0.73448247  0.59012017  0.22785172    -0.01200
C275        C  0.71691893  0.62032546  0.22291764     0.07500
C276        C  0.68488770  0.61018674  0.21576868     0.05600
H277        H  0.76072449  0.58776254  0.23409936     0.10700
H278        H  0.66377196  0.62623266  0.21033482     0.09500
C279        C  0.76781932  0.24137738  0.23558440     0.47900
H280        H  0.78382381  0.22553798  0.21935452    -0.01200
C281        C  0.73030538  0.27838445  0.27360256     0.47900
H282        H  0.71438999  0.29426184  0.28989198    -0.01200
C283        C  0.75664525  0.27461470  0.21820526    -0.14900
C284        C  0.73473068  0.22346936  0.24676226    -0.14600
C285        C  0.78563475  0.25215916  0.26866855    -0.15000
C286        C  0.73926370  0.29551124  0.23954919    -0.15000
C287        C  0.71348728  0.24429627  0.26448809    -0.14500
C288        C  0.76450712  0.26918535  0.29002911    -0.14900
N289        N  0.55448540  0.22990377  0.28955547    -0.24900
N290        N  0.56664390  0.21792882  0.31810860    -0.32800
C291        C  0.60043801  0.21764025  0.31726036     0.03400
C292        C  0.61141673  0.22998578  0.28686198     0.09500
C293        C  0.58144386  0.23763809  0.26979558    -0.03600
H294        H  0.61607164  0.20908744  0.33768338     0.10100
H295        H  0.57956138  0.24817296  0.24488418     0.11300
Cu296      Cu  0.53816080  0.20201161  0.35870854     0.44200
Cu297      Cu  0.49994859  0.23442079  0.28129015     0.42000
Cu298      Cu  0.45315946  0.22332583  0.35925379     0.43900
N299        N  0.50558981  0.18588313  0.39593199    -0.32300
N300        N  0.47377524  0.19459426  0.39636301    -0.26500
C301        C  0.45728988  0.17589435  0.41906065    -0.02600
C302        C  0.47985246  0.15430835  0.43379054     0.09600
C303        C  0.51039718  0.16149934  0.41865212     0.03400
H304        H  0.43035039  0.17566350  0.42212666     0.11000
H305        H  0.53359752  0.14785921  0.42130134     0.10100
N306        N  0.42993599  0.23358020  0.31470973    -0.33700
N307        N  0.44477573  0.23610712  0.28511302    -0.25900
C308        C  0.41966175  0.23836089  0.26187656    -0.01200
C309        C  0.38828938  0.23696285  0.27814394     0.07500
C310        C  0.39643108  0.23403628  0.31141315     0.05600
H311        H  0.42372646  0.24025623  0.23516524     0.10700
H312        H  0.37905340  0.23121198  0.33202721     0.09500
N313        N  0.05031911  0.22312613  0.71539706    -0.24900
N314        N  0.06270700  0.19636439  0.70021886    -0.32800
C315        C  0.09645506  0.19723686  0.70062223     0.03400
C316        C  0.10715170  0.22575066  0.71676939     0.09500
C317        C  0.07711141  0.24176199  0.72592650    -0.03600
H318        H  0.11224358  0.17803436  0.69000341     0.10100
H319        H  0.07505815  0.26507671  0.73946251     0.11300
Cu320      Cu  0.03508835  0.15774492  0.67919651     0.44200
Cu321      Cu  0.99585164  0.23040100  0.72044541     0.42000
Cu322      Cu  0.95009734  0.15440189  0.69609640     0.43900
N323        N  0.00423836  0.12144033  0.65860162    -0.32300
N324        N  0.97198928  0.12006383  0.66541387    -0.26500
C325        C  0.95697604  0.09796702  0.64497541    -0.02600
C326        C  0.98107130  0.08453946  0.62429275     0.09600
C327        C  0.01089153  0.09993620  0.63375006     0.03400
H328        H  0.93018556  0.09402751  0.64346765     0.11000
H329        H  0.03503719  0.09803042  0.62167326     0.10100
N330        N  0.92659232  0.19619110  0.71351149    -0.33700
N331        N  0.94090305  0.22511218  0.72140442    -0.25900
C332        C  0.91540441  0.24676491  0.72851755    -0.01200
C333        C  0.88441239  0.23013600  0.72465660     0.07500
C334        C  0.89309408  0.19837693  0.71522541     0.05600
H335        H  0.91895558  0.27263394  0.73566682     0.10700
H336        H  0.87608858  0.17811769  0.70920215     0.09500
O337        O  0.02429905  0.03095534  0.52779547    -0.70500
O338        O  0.02407649  0.99577831  0.43581099    -0.71500
O339        O  0.02270789  0.06102793  0.46406052    -0.60100
O340        O  0.02271767  0.96626045  0.50093357    -0.68600
O341        O  0.96709494  0.96682312  0.49995363    -0.68100
O342        O  0.96710716  0.05888907  0.46382979    -0.59400
O343        O  0.96849385  0.99433767  0.43438833    -0.71900
O344        O  0.96868576  0.03150827  0.52918197    -0.70700
Cu345      Cu  0.02539536  0.01342789  0.48197499     1.04600
Cu346      Cu  0.96587001  0.01283500  0.48174198     1.04300
C347        C  0.99713500  0.03711193  0.54307476     0.95600
C348        C  0.99693954  0.98931226  0.42042197     0.94800
C349        C  0.99425235  0.07487473  0.45886732     0.86900
C350        C  0.99442620  0.95228128  0.50720356     0.93200
N351        N  0.22453842  0.28380555  0.55252741    -0.24900
N352        N  0.21842109  0.31370674  0.56551913    -0.32800
C353        C  0.21777485  0.31219059  0.59912660     0.03400
C354        C  0.22363935  0.27992352  0.60935196     0.09500
C355        C  0.22797208  0.26226062  0.57907457    -0.03600
H356        H  0.21282336  0.33340533  0.61514530     0.10100
H357        H  0.23308142  0.23579228  0.57671096     0.11300
Cu358      Cu  0.20760264  0.35692271  0.53986752     0.44200
Cu359      Cu  0.22702216  0.27704798  0.49758550     0.42000
Cu360      Cu  0.21365635  0.35796705  0.45483295     0.43900
N361        N  0.18660400  0.39496133  0.51246709    -0.32300
N362        N  0.18920408  0.39550430  0.47962874    -0.26500
C363        C  0.16687469  0.41721792  0.46703702    -0.02600
C364        C  0.14904220  0.43072276  0.49335752     0.09600
C365        C  0.16248454  0.41626937  0.52194964     0.03400
H366        H  0.16110959  0.41970175  0.44068538     0.11000
H367        H  0.15290403  0.41782962  0.54720304     0.10100
N368        N  0.22415615  0.31468435  0.42954109    -0.33700
N369        N  0.22780146  0.28432450  0.44261116    -0.25900
C370        C  0.23083453  0.26284945  0.41610002    -0.01200
C371        C  0.22878735  0.28107112  0.38576660     0.07500
C372        C  0.22468660  0.31354874  0.39593411     0.05600
H373        H  0.23385442  0.23604424  0.41851585     0.10700
H374        H  0.22135013  0.33514340  0.37985623     0.09500
N375        N  0.28794216  0.06147439  0.77015483    -0.24900
N376        N  0.31677382  0.07584209  0.77834029    -0.32800
C377        C  0.31424100  0.10939159  0.77737997     0.03400
C378        C  0.28230020  0.11808825  0.76824297     0.09500
C379        C  0.26599973  0.08698075  0.76368389    -0.03600
H380        H  0.33436820  0.12642439  0.78377926     0.10100
H381        H  0.24008992  0.08335908  0.75662982     0.11300
Cu382      Cu  0.35899285  0.05185136  0.79477637     0.44200
Cu383      Cu  0.28316366  0.00630739  0.77019983     0.42000
Cu384      Cu  0.35659782  0.96593132  0.80964629     0.43900
N385        N  0.39597432  0.02829416  0.82138571    -0.32300
N386        N  0.39502090  0.99583064  0.82734966    -0.26500
C387        C  0.41937023  0.98800917  0.84918882    -0.02600
C388        C  0.43626504  0.01723287  0.85751790     0.09600
C389        C  0.42071025  0.04226337  0.83941148     0.03400
H390        H  0.42246541  0.96346542  0.86027001     0.11000
H391        H  0.42520756  0.06890616  0.84128587     0.10100
N392        N  0.31712167  0.93886474  0.78969860    -0.33700
N393        N  0.29027116  0.95159951  0.77481455    -0.25900
C394        C  0.27137565  0.92499266  0.76427363    -0.01200
C395        C  0.28728732  0.89473882  0.77313830     0.07500
C396        C  0.31602724  0.90512024  0.78915716     0.05600
H397        H  0.24794611  0.92730664  0.75088538     0.10700
H398        H  0.33532245  0.88912318  0.79943445     0.09500
C399        C  0.26376325  0.27364587  0.72981298     0.47900
H400        H  0.28007187  0.28929614  0.71347505    -0.01200
C401        C  0.22558823  0.23698741  0.76800429     0.47900
H402        H  0.20934382  0.22127882  0.78434156    -0.01200
C403        C  0.23069750  0.26239377  0.71223954    -0.14900
C404        C  0.28105129  0.24075286  0.74170657    -0.14600
C405        C  0.25267703  0.29198417  0.76234866    -0.15000
C406        C  0.20911742  0.24549449  0.73355891    -0.15000
C407        C  0.25960534  0.21989502  0.75928347    -0.14500
C408        C  0.23494161  0.27145991  0.78405911    -0.14900
N409        N  0.55113822  0.22725545  0.73380333    -0.24900
N410        N  0.56457495  0.20290940  0.71588656    -0.32800
C411        C  0.59808160  0.20480995  0.71585334     0.03400
C412        C  0.60798211  0.23155193  0.73469518     0.09500
C413        C  0.57751711  0.24561485  0.74598742    -0.03600
H414        H  0.61427090  0.18716779  0.70330502     0.10100
H415        H  0.57495122  0.26724222  0.76199510     0.11300
Cu416      Cu  0.54001963  0.16468650  0.69342535     0.44200
Cu417      Cu  0.49586018  0.22987601  0.73833910     0.42000
Cu418      Cu  0.45656164  0.15138655  0.70642313     0.43900
N419        N  0.51716295  0.12335490  0.67487716    -0.32300
N420        N  0.48504925  0.11782673  0.67980834    -0.26500
C421        C  0.47542902  0.09168454  0.66106289    -0.02600
C422        C  0.50323418  0.08042375  0.64357748     0.09600
C423        C  0.52928077  0.10092056  0.65321904     0.03400
H424        H  0.44975192  0.08340348  0.65851711     0.11000
H425        H  0.55434330  0.10150156  0.64295428     0.10100
N426        N  0.42925722  0.19113245  0.72447728    -0.33700
N427        N  0.44118587  0.22021780  0.73534412    -0.25900
C428        C  0.41389278  0.23971814  0.74224016    -0.01200
C429        C  0.38418484  0.22175298  0.73522241     0.07500
C430        C  0.39554220  0.19129175  0.72417749     0.05600
H431        H  0.41536489  0.26516991  0.75128998     0.10700
H432        H  0.38023774  0.17057520  0.71571121     0.09500
C433        C  0.72901192  0.27951097  0.73457329     0.47900
H434        H  0.71324249  0.29627814  0.71893614    -0.01200
C435        C  0.76586064  0.24021260  0.77117142     0.47900
H436        H  0.78170053  0.22347035  0.78677461    -0.01200
C437        C  0.76224010  0.26904363  0.71694632    -0.14900
C438        C  0.73967946  0.29560169  0.76850688    -0.14600
C439        C  0.71108666  0.24607380  0.74430427    -0.15000
C440        C  0.78301775  0.25088002  0.73775613    -0.15000
C441        C  0.75648483  0.27345054  0.78916155    -0.14500
C442        C  0.73194007  0.22387851  0.76090276    -0.14900
N443        N  0.73339678  0.45440068  0.79533787    -0.24900
N444        N  0.72502600  0.44116480  0.82467712    -0.32800
C445        C  0.72487464  0.40751314  0.82313904     0.03400
C446        C  0.73359362  0.39764150  0.79141802     0.09500
C447        C  0.73898557  0.42810837  0.77418536    -0.03600
H448        H  0.71814562  0.39124638  0.84381645     0.10100
H449        H  0.74599785  0.43077713  0.74815696     0.11300
Cu450      Cu  0.71039060  0.46713723  0.86644707     0.44200
Cu451      Cu  0.73468268  0.50928065  0.78843231     0.42000
Cu452      Cu  0.70075849  0.55310087  0.86276257     0.43900
N453        N  0.68454589  0.49254527  0.90271474    -0.32300
N454        N  0.68012110  0.52518358  0.90107127    -0.26500
C455        C  0.65625797  0.53401747  0.92303757    -0.02600
C456        C  0.64499650  0.50520894  0.93904868     0.09600
C457        C  0.66374972  0.47951069  0.92573678     0.03400
H458        H  0.64558963  0.55883353  0.92446174     0.11000
H459        H  0.65981703  0.45298172  0.92962881     0.10100
N460        N  0.71872437  0.57799372  0.82114098    -0.33700
N461        N  0.73100889  0.56420933  0.79357325    -0.25900
C462        C  0.73911788  0.59007818  0.77246870    -0.01200
C463        C  0.73132150  0.62085694  0.78782761     0.07500
C464        C  0.71859842  0.61159985  0.81846040     0.05600
H465        H  0.74973992  0.58690380  0.74778580     0.10700
H466        H  0.70956492  0.62827891  0.83771573     0.09500
C467        C  0.76950141  0.77709778  0.76493329     0.47900
H468        H  0.78602201  0.79343314  0.78024652    -0.01200
C469        C  0.73094756  0.73869234  0.72916374     0.47900
H470        H  0.71443399  0.72226401  0.71393258    -0.01200
C471        C  0.73602053  0.79433521  0.75473257    -0.14900
C472        C  0.78607396  0.76589470  0.73128584    -0.14600
C473        C  0.75894352  0.74420048  0.78349435    -0.15000
C474        C  0.71433661  0.77280493  0.73830983    -0.15000
C475        C  0.76435168  0.74790916  0.71113688    -0.14500
C476        C  0.74128510  0.72249094  0.76317357    -0.14900
N477        N  0.55515708  0.78530095  0.71620804    -0.24900
N478        N  0.56810873  0.79744114  0.68803162    -0.32800
C479        C  0.60175873  0.79773124  0.68951199     0.03400
C480        C  0.61196996  0.78519309  0.71986544     0.09500
C481        C  0.58169466  0.77738028  0.73642409    -0.03600
H482        H  0.61782428  0.80649187  0.66948034     0.10100
H483        H  0.57931884  0.76670639  0.76123598     0.11300
Cu484      Cu  0.54248950  0.81431979  0.64655694     0.44200
Cu485      Cu  0.50037584  0.78126957  0.72342160     0.42000
Cu486      Cu  0.45715725  0.81314594  0.64955152     0.43900
N487        N  0.51434927  0.83445263  0.60834458    -0.32300
N488        N  0.48144752  0.83401579  0.60992086    -0.26500
C489        C  0.46875932  0.85359684  0.58578035    -0.02600
C490        C  0.49527065  0.86719901  0.56807118     0.09600
C491        C  0.52382867  0.85427423  0.58282535     0.03400
H492        H  0.44251082  0.85979388  0.58357712     0.11000
H493        H  0.54944068  0.86162006  0.57775831     0.10100
N494        N  0.43201804  0.79555117  0.69020791    -0.33700
N495        N  0.44532707  0.78338782  0.71807956    -0.25900
C496        C  0.41895983  0.77476825  0.73831561    -0.01200
C497        C  0.38855919  0.78229516  0.72184491     0.07500
C498        C  0.39846389  0.79529743  0.69168551     0.05600
H499        H  0.42151632  0.76398367  0.76305629     0.10700
H500        H  0.38228242  0.80414333  0.67181628     0.09500
C501        C  0.23158491  0.77634218  0.76592693     0.47900
H502        H  0.21603521  0.79219757  0.78258835    -0.01200
C503        C  0.26780085  0.73914971  0.72687079     0.47900
H504        H  0.28334195  0.72331881  0.71018504    -0.01200
C505        C  0.21378363  0.76743161  0.73236969    -0.14900
C506        C  0.26545948  0.79316155  0.75608100    -0.14600
C507        C  0.24118987  0.74213930  0.78205833    -0.15000
C508        C  0.23425875  0.75048432  0.71030148    -0.15000
C509        C  0.28587455  0.77201913  0.73794423    -0.14500
C510        C  0.25772200  0.72112459  0.76015370    -0.14900
N511        N  0.04835509  0.79803667  0.26606475    -0.24900
N512        N  0.06070762  0.82822007  0.27256763    -0.32800
C513        C  0.09445063  0.82749399  0.27259363     0.03400
C514        C  0.10518235  0.79546342  0.26591778     0.09500
C515        C  0.07516350  0.77724474  0.26175196    -0.03600
H516        H  0.11020445  0.84895310  0.27779718     0.10100
H517        H  0.07313406  0.75079372  0.25636544     0.11300
Cu518      Cu  0.03300307  0.87034310  0.28431329     0.44200
Cu519      Cu  0.99389814  0.78906714  0.26480848     0.42000
Cu520      Cu  0.94743244  0.86825355  0.27320763     0.43900
N521        N  0.00229278  0.90760461  0.30283686    -0.32300
N522        N  0.96964514  0.90692628  0.29821820    -0.26500
C523        C  0.95496881  0.92887361  0.31896310    -0.02600
C524        C  0.97967219  0.94418666  0.33771380     0.09600
C525        C  0.00950652  0.93024268  0.32654839     0.03400
H526        H  0.92821635  0.93070451  0.32281799     0.11000
H527        H  0.03415631  0.93328586  0.33733367     0.10100
N528        N  0.92434650  0.82298541  0.26701784    -0.33700
N529        N  0.93892187  0.79323423  0.26550912    -0.25900
C530        C  0.91365008  0.77000782  0.26570012    -0.01200
C531        C  0.88255985  0.78653719  0.26764389     0.07500
C532        C  0.89090632  0.81981256  0.26832098     0.05600
H533        H  0.91745723  0.74321646  0.26500462     0.10700
H534        H  0.87376771  0.84061008  0.27064209     0.09500
C535        C  0.26134343  0.74439459  0.26505927     0.47900
H536        H  0.27668926  0.72867887  0.28214731    -0.01200
C537        C  0.22563897  0.78135731  0.22506531     0.47900
H538        H  0.21036954  0.79711076  0.20793217    -0.01200
C539        C  0.22766353  0.75606020  0.28119455    -0.14900
C540        C  0.27976085  0.77704651  0.25349145    -0.14600
C541        C  0.25139545  0.72596840  0.23210108    -0.15000
C542        C  0.20751651  0.77326869  0.25877514    -0.15000
C543        C  0.25962493  0.79803956  0.23473931    -0.14500
C544        C  0.23494641  0.74674012  0.20968676    -0.14900
N545        N  0.27043489  0.45571088  0.21526867    -0.24900
N546        N  0.28539293  0.44312347  0.18850764    -0.32800
C547        C  0.28567311  0.40948969  0.18959708     0.03400
C548        C  0.27009889  0.39866216  0.21825311     0.09500
C549        C  0.26058827  0.42874612  0.23429090    -0.03600
H550        H  0.29604216  0.39383667  0.17014945     0.10100
H551        H  0.24713745  0.43065584  0.25770343     0.11300
Cu552      Cu  0.30391703  0.46946762  0.14859404     0.44200
Cu553      Cu  0.26518302  0.51088373  0.22033763     0.42000
Cu554      Cu  0.28834431  0.55343763  0.14074178     0.43900
N555        N  0.32164931  0.49608163  0.10847901    -0.32300
N556        N  0.31546424  0.52826736  0.10510156    -0.26500
C557        C  0.33464874  0.54075008  0.08038220    -0.02600
C558        C  0.35387248  0.51497333  0.06770914     0.09600
C559        C  0.34478673  0.48687426  0.08602191     0.03400
H560        H  0.33698755  0.56709238  0.07448999     0.11000
H561        H  0.35645557  0.46246884  0.08562671     0.10100
N562        N  0.27227038  0.57892942  0.18236980    -0.33700
N563        N  0.26470382  0.56599553  0.21209866    -0.25900
C564        C  0.25811039  0.59265431  0.23260426    -0.01200
C565        C  0.26186925  0.62295946  0.21450534     0.07500
C566        C  0.27076470  0.61257184  0.18303176     0.05600
H567        H  0.25134522  0.59037513  0.25873191     0.10700
H568        H  0.27648349  0.62855607  0.16184564     0.09500
N569        N  0.20521135  0.74258817  0.55116305    -0.24900
N570        N  0.17773335  0.73007328  0.56511623    -0.32800
C571        C  0.18018062  0.73006231  0.59871896     0.03400
C572        C  0.21062273  0.74316764  0.60801327     0.09500
C573        C  0.22610338  0.75103689  0.57707438    -0.03600
H574        H  0.16108988  0.72031696  0.61538235     0.10100
H575        H  0.25085078  0.76166061  0.57385070     0.11300
Cu576      Cu  0.13795102  0.70916925  0.54021248     0.44200
Cu577      Cu  0.20984367  0.74487467  0.49573560     0.42000
Cu578      Cu  0.14343039  0.69506152  0.45443619     0.43900
N579        N  0.10557653  0.67736970  0.51618943    -0.32300
N580        N  0.10814857  0.67110947  0.48392337    -0.26500
C581        C  0.08744798  0.64570584  0.47609323    -0.02600
C582        C  0.07121957  0.63549131  0.50514237     0.09600
C583        C  0.08327273  0.65622068  0.52998095     0.03400
H584        H  0.08608977  0.63431816  0.45160876     0.11000
H585        H  0.07812346  0.65441487  0.55651944     0.10100
N586        N  0.17911321  0.72166054  0.42775656    -0.33700
N587        N  0.20353186  0.74023165  0.44063877    -0.25900
C588        C  0.22085476  0.75338506  0.41400605    -0.01200
C589        C  0.20642723  0.74233113  0.38363896     0.07500
C590        C  0.18019697  0.72240523  0.39402652     0.05600
H591        H  0.24238670  0.76970046  0.41635706     0.10700
H592        H  0.16282729  0.70913527  0.37801701     0.09500
N593        N  0.05449771  0.78167369  0.71166869    -0.24900
N594        N  0.06824918  0.80029436  0.68786708    -0.32800
C595        C  0.10177410  0.79979541  0.68972666     0.03400
C596        C  0.11124496  0.77990496  0.71600693     0.09500
C597        C  0.08055550  0.76853762  0.72971082    -0.03600
H598        H  0.11823937  0.81299028  0.67262732     0.10100
H599        H  0.07761556  0.75194368  0.75097569     0.11300
Cu600      Cu  0.04325581  0.82562022  0.65172395     0.44200
Cu601      Cu  0.99929468  0.77803866  0.71396094     0.42000
Cu602      Cu  0.95809096  0.82205749  0.64047351     0.43900
N603        N  0.02138790  0.84959814  0.61270174    -0.32300
N604        N  0.98885779  0.84846669  0.60745673    -0.26500
C605        C  0.98171742  0.86814820  0.58095647    -0.02600
C606        C  0.01159424  0.88208235  0.56930761     0.09600
C607        C  0.03606099  0.86974557  0.59015390     0.03400
H608        H  0.95664164  0.87319468  0.57209380     0.11000
H609        H  0.06243915  0.87603282  0.58989684     0.10100
N610        N  0.93191103  0.79772319  0.67870534    -0.33700
N611        N  0.94473259  0.78225347  0.70530915    -0.25900
C612        C  0.91819723  0.77114905  0.72403460    -0.01200
C613        C  0.88789091  0.78013017  0.70834135     0.07500
C614        C  0.89815095  0.79679182  0.67985610     0.05600
H615        H  0.92061259  0.75767999  0.74743950     0.10700
H616        H  0.88203120  0.80792556  0.66113655     0.09500
N617        N  0.72248328  0.06374739  0.78095500    -0.24900
N618        N  0.71305243  0.07606434  0.81025882    -0.32800
C619        C  0.71187934  0.10972120  0.80923855     0.03400
C620        C  0.72106903  0.12074480  0.77794793     0.09500
C621        C  0.72780341  0.09080575  0.76037677    -0.03600
H622        H  0.70500320  0.12524537  0.83027529     0.10100
H623        H  0.73607247  0.08904404  0.73466687     0.11300
Cu624      Cu  0.70182091  0.04892494  0.85254559     0.44200
Cu625      Cu  0.72660083  0.00876454  0.77396626     0.42000
Cu626      Cu  0.71222087  0.96348561  0.85392718     0.43900
N627        N  0.68679042  0.02063937  0.89283087    -0.32300
N628        N  0.69086248  0.98794985  0.89357753    -0.26500
C629        C  0.67242604  0.97493843  0.91859096    -0.02600
C630        C  0.65563797  0.00083016  0.93410805     0.09600
C631        C  0.66572188  0.02959511  0.91731627     0.03400
H632        H  0.66822296  0.94841692  0.92240122     0.11000
H633        H  0.65566595  0.05454789  0.91986700     0.10100
N634        N  0.72242396  0.93944077  0.80978965    -0.33700
N635        N  0.72699831  0.95345139  0.77994752    -0.25900
C636        C  0.73052897  0.92757209  0.75777268    -0.01200
C637        C  0.72778200  0.89665351  0.77494235     0.07500
C638        C  0.72276168  0.90585262  0.80760711     0.05600
H639        H  0.73442958  0.93080611  0.73116338     0.10700
H640        H  0.71893433  0.88911636  0.82863994     0.09500
N641        N  0.05586926  0.24596041  0.28948130    -0.24900
N642        N  0.07015389  0.24453200  0.31943591    -0.32800
C643        C  0.10370681  0.24402180  0.31680670     0.03400
C644        C  0.11260085  0.24515836  0.28365754     0.09500
C645        C  0.08153518  0.24647740  0.26669149    -0.03600
H646        H  0.12059319  0.24189407  0.33789910     0.10100
H647        H  0.07805318  0.24729075  0.23985103     0.11300
Cu648      Cu  0.04624736  0.23723772  0.36416468     0.44200
Cu649      Cu  0.00046297  0.24595794  0.28476212     0.42000
Cu650      Cu  0.96007679  0.22854420  0.36575906     0.43900
N651        N  0.02311150  0.20988312  0.40084806    -0.32300
N652        N  0.99031485  0.20627187  0.40124062    -0.26500
C653        C  0.98241246  0.17969273  0.42030163    -0.02600
C654        C  0.01192679  0.16543976  0.43193349     0.09600
C655        C  0.03716168  0.18567938  0.41956198     0.03400
H656        H  0.95739219  0.16939336  0.42191425     0.11000
H657        H  0.06372099  0.18038280  0.42009793     0.10100
N658        N  0.93283609  0.23999890  0.32331354    -0.33700
N659        N  0.94547436  0.24530191  0.29301131    -0.25900
C660        C  0.91870243  0.24910968  0.27188708    -0.01200
C661        C  0.88849043  0.24592869  0.29006477     0.07500
C662        C  0.89909350  0.24029044  0.32238756     0.05600
H663        H  0.92085743  0.25352205  0.24524223     0.10700
H664        H  0.88323004  0.23588868  0.34393792     0.09500
C665        C  0.26920105  0.27659004  0.26570480     0.47900
H666        H  0.28514736  0.29225110  0.28228578    -0.01200
C667        C  0.23181262  0.23998741  0.22699766     0.47900
H668        H  0.21580633  0.22432050  0.21048880    -0.01200
C669        C  0.25828311  0.29519289  0.23307050    -0.14900
C670        C  0.28689527  0.24393622  0.25402513    -0.14600
C671        C  0.23614640  0.26486952  0.28285768    -0.15000
C672        C  0.24094400  0.27458930  0.21117927    -0.15000
C673        C  0.26600676  0.22313404  0.23578792    -0.14500
C674        C  0.21487370  0.24817186  0.26123852    -0.14900
N675        N  0.75552504  0.72248594  0.05376258    -0.24900
N676        N  0.75881330  0.69217244  0.06704220    -0.32800
C677        C  0.75857898  0.69353466  0.10064131     0.03400
C678        C  0.75505831  0.72613415  0.11060022     0.09500
C679        C  0.75304970  0.74417384  0.08015461    -0.03600
H680        H  0.76225017  0.67207147  0.11683993     0.10100
H681        H  0.75073424  0.77103667  0.07758374     0.11300
Cu682      Cu  0.77097541  0.64915632  0.04232687     0.44200
Cu683      Cu  0.75677597  0.72959250  0.99869658     0.42000
Cu684      Cu  0.79077200  0.65468231  0.95885058     0.43900
N685        N  0.80271899  0.61546888  0.02072178    -0.32300
N686        N  0.81069560  0.61794943  0.98883268    -0.26500
C687        C  0.83695998  0.59810995  0.98254233    -0.02600
C688        C  0.84612138  0.58256823  0.01226615     0.09600
C689        C  0.82381317  0.59415038  0.03592066     0.03400
H690        H  0.85019158  0.59774518  0.95892802     0.11000
H691        H  0.82485652  0.58992167  0.06269132     0.10100
N692        N  0.77394411  0.69488542  0.93153004    -0.33700
N693        N  0.76172168  0.72313656  0.94380910    -0.25900
C694        C  0.75484534  0.74322076  0.91678062    -0.01200
C695        C  0.76340539  0.72639054  0.88689773     0.07500
C696        C  0.77522135  0.69604180  0.89789892     0.05600
H697        H  0.74463272  0.76820226  0.91854784     0.10700
H698        H  0.78458731  0.67597057  0.88240287     0.09500
O699        O  0.48217416  0.48947077  0.95019811    -0.70500
O700        O  0.51835358  0.47382943  0.04181888    -0.71500
O701        O  0.45377613  0.47416209  0.01318036    -0.60100
O702        O  0.54709748  0.48984713  0.97924347    -0.68600
O703        O  0.54239091  0.54418479  0.98982194    -0.68100
O704        O  0.44937397  0.52864386  0.02316783    -0.59400
O705        O  0.51365055  0.52809813  0.05283039    -0.71900
O706        O  0.47775776  0.54391440  0.96041034    -0.70700
Cu707      Cu  0.50057784  0.47994632  0.99565950     1.04600
Cu708      Cu  0.49567668  0.53812809  0.00693238     1.04300
C709        C  0.47355176  0.51887783  0.94105351     0.95600
C710        C  0.52165175  0.49840121  0.06182243     0.94800
C711        C  0.43692692  0.49914942  0.02365212     0.86900
C712        C  0.55946483  0.51944090  0.97927612     0.93200
O713        O  0.45007600  0.03102179  0.54920565    -0.70500
O714        O  0.45042143  0.99576299  0.45642455    -0.71500
O715        O  0.44445581  0.96655368  0.52057600    -0.60100
O716        O  0.45776913  0.06051405  0.48479958    -0.68600
O717        O  0.51278503  0.05316336  0.48829169    -0.68100
O718        O  0.49975850  0.96132540  0.52256362    -0.59400
O719        O  0.50563369  0.98937714  0.45894551    -0.71900
O720        O  0.50526945  0.02481130  0.55232398    -0.70700
Cu721      Cu  0.44866575  0.01378628  0.50264489     1.04600
Cu722      Cu  0.50773656  0.00701658  0.50562712     1.04300
C723        C  0.47743610  0.03358789  0.56539597     0.95600
C724        C  0.47782286  0.98608596  0.44341311     0.94800
C725        C  0.47054720  0.94916726  0.52695775     0.86900
C726        C  0.48775918  0.07135825  0.48085121     0.93200
O727        O  0.95391915  0.51530365  0.52449884    -0.70500
O728        O  0.04669390  0.47861098  0.53699344    -0.71500
O729        O  0.01951891  0.54244865  0.52244907    -0.60100
O730        O  0.98127401  0.45072993  0.53890188    -0.68600
O731        O  0.98490039  0.44017037  0.48449725    -0.68100
O732        O  0.02183378  0.53186593  0.46795111    -0.59400
O733        O  0.04974043  0.46884534  0.48239075    -0.71900
O734        O  0.95675189  0.50431597  0.47013391    -0.70700
Cu735      Cu  0.00015286  0.49707679  0.53266817     1.04600
Cu736      Cu  0.00330014  0.48581945  0.47440183     1.04300
C737        C  0.94112962  0.51650746  0.49515932     0.95600
C738        C  0.06299567  0.46842511  0.51151441     0.94800
C739        C  0.02694620  0.55144664  0.49258594     0.86900
C740        C  0.97750125  0.43082003  0.51421767     0.93200
C741        C  0.14775072  0.24431373  0.27189187    -0.10900
C742        C  0.17822732  0.24453214  0.26694994    -0.12400
C743        C  0.05053348  0.60537408  0.51078743    -0.14000
C744        C  0.04269689  0.58415153  0.48604181    -0.29200
H745        H  0.04336720  0.59953185  0.53639543     0.15000
H746        H  0.04971784  0.58987942  0.46040818     0.15600
C747        C  0.26478868  0.36278490  0.22637853    -0.10900
C748        C  0.26230462  0.33207024  0.22892789    -0.12400
C749        C  0.40336962  0.49357257  0.03777820    -0.14000
C750        C  0.38375175  0.51934568  0.04657480    -0.29200
H751        H  0.39572141  0.46800784  0.04292551     0.15000
H752        H  0.39120046  0.54479292  0.04044011     0.15600
C753        C  0.22026357  0.75168317  0.31759441    -0.10900
C754        C  0.21533856  0.74862479  0.34801074    -0.12400
C755        C  0.25603210  0.68925822  0.22751481    -0.10900
C756        C  0.25837353  0.65865413  0.22401613    -0.12400
C757        C  0.14075863  0.78506316  0.26467750    -0.10900
C758        C  0.17115197  0.77980581  0.26348060    -0.12400
C759        C  0.14660379  0.77367902  0.72465765    -0.10900
C760        C  0.17715426  0.77139982  0.72779948    -0.12400
C761        C  0.22741047  0.74720190  0.67372973    -0.10900
C762        C  0.22193286  0.74606830  0.64331065    -0.12400
C763        C  0.32253617  0.77652293  0.73441574    -0.10900
C764        C  0.35311509  0.77837079  0.73140422    -0.12400
C765        C  0.49481968  0.89633536  0.54563064    -0.14000
C766        C  0.46737729  0.91523284  0.54091122    -0.29200
H767        H  0.51891973  0.90476732  0.53611887     0.15000
H768        H  0.44306918  0.90720088  0.55008455     0.15600
C769        C  0.64746735  0.78126484  0.72962723    -0.10900
C770        C  0.67793860  0.77871659  0.73359411    -0.12400
C771        C  0.76157336  0.73993570  0.82044967    -0.10900
C772        C  0.76176981  0.73617227  0.85111461    -0.12400
C773        C  0.73062423  0.83086913  0.75933058    -0.10900
C774        C  0.72911089  0.86137256  0.76372464    -0.12400
C775        C  0.85246385  0.77460519  0.71818591    -0.10900
C776        C  0.82223285  0.77129145  0.72375518    -0.12400
C777        C  0.73477847  0.65598120  0.77637590    -0.10900
C778        C  0.73670471  0.68624399  0.77053836    -0.12400
C779        C  0.61388262  0.50031195  0.95827928    -0.14000
C780        C  0.59333582  0.52561377  0.96606508    -0.29200
H781        H  0.60647945  0.47472302  0.96390706     0.15000
H782        H  0.60075045  0.55133002  0.96128914     0.15600
C783        C  0.72359322  0.15662458  0.76847216    -0.10900
C784        C  0.72567939  0.18728808  0.76496718    -0.12400
C785        C  0.73623677  0.33195925  0.77534854    -0.10900
C786        C  0.73528777  0.36231540  0.78057343    -0.12400
C787        C  0.47639592  0.04827857  0.59888937    -0.14000
C788        C  0.50434601  0.05785743  0.61470031    -0.29200
H789        H  0.45198729  0.05457771  0.60891703     0.15000
H790        H  0.52869502  0.05255361  0.60385443     0.15600
C791        C  0.64355886  0.23981971  0.74033024    -0.10900
C792        C  0.67424710  0.24215202  0.74176478    -0.12400
C793        C  0.34831951  0.23096768  0.73736851    -0.10900
C794        C  0.31773151  0.23506648  0.73837602    -0.12400
C795        C  0.27805082  0.85928246  0.76694002    -0.10900
C796        C  0.27292323  0.82909316  0.76277134    -0.12400
C797        C  0.27063372  0.15310212  0.76561581    -0.10900
C798        C  0.26548621  0.18345431  0.76393673    -0.12400
C799        C  0.22967136  0.27101676  0.35018808    -0.10900
C800        C  0.23094347  0.26794237  0.31954386    -0.12400
C801        C  0.22585356  0.26599513  0.67552931    -0.10900
C802        C  0.22469596  0.26955808  0.64491045    -0.12400
C803        C  0.11691400  0.44843152  0.48985401    -0.14000
C804        C  0.09719287  0.45553876  0.51610017    -0.29200
H805        H  0.10826699  0.45373400  0.46460210     0.15000
H806        H  0.10577217  0.45097716  0.54147194     0.15600
C807        C  0.01693045  0.90868501  0.54418233    -0.14000
C808        C  0.99204128  0.92010878  0.52497804    -0.29200
H809        H  0.04123456  0.92100452  0.54358320     0.15000
H810        H  0.96760768  0.90814236  0.52602620     0.15600
C811        C  0.99120802  0.10955017  0.44707355    -0.14000
C812        C  0.01668045  0.13140722  0.44575905    -0.29200
H813        H  0.96630236  0.11725600  0.43954824     0.15000
H814        H  0.04166375  0.12371985  0.45324280     0.15600
C815        C  0.00001758  0.97511063  0.38666054    -0.14000
C816        C  0.97414854  0.96378372  0.36857105    -0.29200
H817        H  0.02533522  0.97217609  0.37728100     0.15000
H818        H  0.94870095  0.96690966  0.37762502     0.15600
C819        C  0.14270728  0.23470910  0.72269847    -0.10900
C820        C  0.17300618  0.23927861  0.72666468    -0.12400
C821        C  0.84947149  0.24118516  0.72863269    -0.10900
C822        C  0.81918512  0.24561782  0.73159080    -0.12400
C823        C  0.97478760  0.06408525  0.59419194    -0.14000
C824        C  0.00035193  0.05183042  0.57652127    -0.29200
H825        H  0.94920447  0.06089343  0.58544309     0.15000
H826        H  0.02573477  0.05471481  0.58588916     0.15600
C827        C  0.32322201  0.23844046  0.25973360    -0.10900
C828        C  0.35350128  0.23726425  0.26545762    -0.12400
C829        C  0.47106998  0.12474172  0.45428983    -0.14000
C830        C  0.49480689  0.10450949  0.46646367    -0.29200
H831        H  0.44476861  0.11830836  0.45734267     0.15000
H832        H  0.52102124  0.11134017  0.46376781     0.15600
C833        C  0.67740696  0.23734475  0.27151266    -0.10900
C834        C  0.64710565  0.23409170  0.27699450    -0.12400
C835        C  0.82231447  0.24818383  0.27453951    -0.10900
C836        C  0.85282280  0.24710255  0.27954599    -0.12400
C837        C  0.53610188  0.49200979  0.09500522    -0.14000
C838        C  0.54116633  0.51657657  0.11721040    -0.29200
H839        H  0.54503091  0.46684430  0.10006111     0.15000
H840        H  0.53227916  0.54174170  0.11184012     0.15600
C841        C  0.73347763  0.33176320  0.23336080    -0.10900
C842        C  0.72884210  0.36209014  0.23012086    -0.12400
C843        C  0.75542463  0.74018143  0.17667708    -0.10900
C844        C  0.75542706  0.73656548  0.14607129    -0.12400
C845        C  0.73112391  0.68613369  0.22760202    -0.10900
C846        C  0.72718711  0.65571647  0.22522298    -0.12400
C847        C  0.81737036  0.76981993  0.26916756    -0.10900
C848        C  0.84778512  0.77434230  0.26923385    -0.12400
C849        C  0.76073659  0.27778703  0.82583382    -0.10900
C850        C  0.76435786  0.27902099  0.85642254    -0.12400
C851        C  0.76123339  0.28075456  0.18168839    -0.10900
C852        C  0.76483395  0.28415209  0.15118269    -0.12400
C853        C  0.60536478  0.02215182  0.96246877    -0.14000
C854        C  0.62595340  0.99657516  0.95561709    -0.29200
H855        H  0.61208256  0.04754165  0.95540690     0.15000
H856        H  0.61895461  0.97121648  0.96273139     0.15600
C857        C  0.47299505  0.99683437  0.90259766    -0.14000
C858        C  0.45952433  0.02252814  0.88562494    -0.29200
H859        H  0.46990934  0.97140686  0.89361921     0.15000
H860        H  0.46318837  0.04802755  0.89427971     0.15600
C861        C  0.72635067  0.15622507  0.24008389    -0.10900
C862        C  0.72960048  0.18680900  0.24272062    -0.12400
C863        C  0.71992812  0.86108759  0.24073110    -0.10900
C864        C  0.72399316  0.83049423  0.24066708    -0.12400
C865        C  0.55476330  0.99412762  0.11263358    -0.14000
C866        C  0.54495074  0.01956311  0.09301238    -0.29200
H867        H  0.54996120  0.96837209  0.10538726     0.15000
H868        H  0.54865371  0.04522842  0.10110454     0.15600
C869        C  0.89767116  0.55439223  0.99469281    -0.14000
C870        C  0.87710236  0.56392087  0.01933130    -0.29200
H871        H  0.89063768  0.55837363  0.96871453     0.15000
H872        H  0.88382380  0.55938244  0.04533050     0.15600
C873        C  0.94416115  0.40328571  0.98935977    -0.20000
C874        C  0.95404539  0.42182061  0.01542603    -0.29200
H875        H  0.94947625  0.41140875  0.96393361     0.15000
H876        H  0.94900800  0.41328182  0.04073578     0.15600
C877        C  0.22642867  0.73676754  0.14303159    -0.10900
C878        C  0.23038805  0.73972049  0.17346482    -0.12400
C879        C  0.23378572  0.73421666  0.84898885    -0.10900
C880        C  0.23742160  0.73609692  0.81847790    -0.12400
C881        C  0.04341531  0.62723607  0.98445270    -0.14000
C882        C  0.03001405  0.61211860  0.01121781    -0.29200
H883        H  0.04100386  0.61599666  0.95985310     0.15000
H884        H  0.03212467  0.62351715  0.03573337     0.15600
C885        C  0.76957532  0.74128104  0.67490086    -0.10900
C886        C  0.77141500  0.73565495  0.64463799    -0.12400
C887        C  0.76773717  0.73941215  0.32130787    -0.10900
C888        C  0.77223719  0.73358528  0.35134163    -0.12400
C889        C  0.89192586  0.54861051  0.51411955    -0.14000
C890        C  0.90913859  0.53404306  0.48924788    -0.29200
H891        H  0.89943581  0.54455033  0.53993358     0.15000
H892        H  0.90114007  0.53741388  0.46350304     0.15600
C893        C  0.26760065  0.83371872  0.22691229    -0.10900
C894        C  0.27237375  0.86370528  0.22090614    -0.12400
C895        C  0.39332496  0.01925702  0.03813012    -0.14000
C896        C  0.41437516  0.99369706  0.03266538    -0.29200
H897        H  0.40039429  0.04446590  0.03057528     0.15000
H898        H  0.40761338  0.96845562  0.04022195     0.15600
C899        C  0.27286471  0.18730232  0.22842245    -0.10900
C900        C  0.27605870  0.15722336  0.22235101    -0.12400
C901        C  0.22649700  0.28476013  0.85038306    -0.10900
C902        C  0.22938271  0.27898380  0.82016818    -0.12400
C903        C  0.10418828  0.46894441  0.99509125    -0.14000
C904        C  0.08579901  0.47765927  0.02186944    -0.29200
H905        H  0.09634108  0.47652155  0.97015396     0.15000
H906        H  0.09358041  0.47059374  0.04692998     0.15600
C907        C  0.23097400  0.28657489  0.14485394    -0.10900
C908        C  0.23502022  0.28198092  0.17513085    -0.12400
C909        C  0.26227553  0.35911286  0.76809763    -0.10900
C910        C  0.25771460  0.32860546  0.76681208    -0.12400
C911        C  0.26585032  0.65398670  0.76832187    -0.10900
C912        C  0.26234067  0.68452976  0.76544372    -0.12400
C913        C  0.45665437  0.52394427  0.90876841    -0.14000
C914        C  0.44700992  0.49790457  0.88984980    -0.29200
H915        H  0.44907327  0.54920600  0.90232620     0.15000
H916        H  0.45465141  0.47266965  0.89650321     0.15600
C917        C  0.34700274  0.78523577  0.25924370    -0.10900
C918        C  0.31644150  0.78174675  0.25724353    -0.12400
C919        C  0.67221138  0.77609298  0.26258624    -0.10900
C920        C  0.64160972  0.77934551  0.26330689    -0.12400
C921        C  0.50311390  0.95287318  0.39897398    -0.14000
C922        C  0.47648836  0.96901053  0.41111004    -0.29200
H923        H  0.52739109  0.95526008  0.41105503     0.15000
H924        H  0.45228333  0.96684373  0.39890368     0.15600
C925        C  0.76820589  0.27325598  0.68038941    -0.10900
C926        C  0.77352960  0.27424082  0.64999390    -0.12400
C927        C  0.77629381  0.27340069  0.35667987    -0.10900
C928        C  0.77091027  0.27303966  0.32637257    -0.12400
C929        C  0.96373806  0.39705590  0.52027500    -0.14000
C930        C  0.96053933  0.37453224  0.49551639    -0.29200
H931        H  0.95466002  0.39139345  0.54523796     0.15000
H932        H  0.96968202  0.38053532  0.47060444     0.15600
loop_ 
_geom_bond_atom_site_label_1 
_geom_bond_atom_site_label_2 
_geom_bond_distance 
_geom_bond_site_symmetry_2 
_ccdc_geom_bond_type 
N1            N2   1.328       .  A
N1            C5   1.368       .  A
N1           Cu9   2.206       .  S
N2            C3   1.345       .  A
N2           Cu8   2.060       .  S
C3            C4   1.373       .  A
C3            H6   1.082       .  S
C4            C5   1.409       .  A
C4          C927   1.476       .  S
C5            H7   1.081       .  S
Cu8          N11   2.058       .  S
Cu9          N19   2.206       .  S
Cu10         N12   2.055       .  S
Cu10         N18   2.056       .  S
N11          N12   1.317       .  A
N11          C15   1.344       .  A
N12          C13   1.342       .  A
C13          C14   1.386       .  A
C13          H16   1.081       .  S
C14          C15   1.383       .  A
C14         C930   1.476       .  S
C15          H17   1.082       .  S
N18          N19   1.326       .  A
N18          C22   1.346       .  A
N19          C20   1.369       .  A
C20          C21   1.412       .  A
C20          H23   1.082       .  S
C21          C22   1.375       .  A
C21         C926   1.481       .  S
C22          H24   1.082       .  S
N25          N26   1.325       .  A
N25          C29   1.370       .  A
N25         Cu33   2.213       .  S
N26          C27   1.341       .  A
N26         Cu32   2.028       .  S
C27          C28   1.367       .  A
C27          H30   1.082       .  S
C28          C29   1.414       .  A
C28         C920   1.474       .  S
C29          H31   1.082       .  S
Cu32         N35   2.029       .  S
Cu33         N43   2.214       .  S
Cu34         N36   2.052       .  S
Cu34         N42   2.052       .  S
N35          N36   1.315       .  A
N35          C39   1.339       .  A
N36          C37   1.341       .  A
C37          C38   1.387       .  A
C37          H40   1.082       .  S
C38          C39   1.377       .  A
C38         C921   1.465       .  S
C39          H41   1.082       .  S
N42          N43   1.328       .  A
N42          C46   1.344       .  A
N43          C44   1.370       .  A
C44          C45   1.412       .  A
C44          H47   1.081       .  S
C45          C46   1.371       .  A
C45         C917   1.477       .  S
C46          H48   1.082       .  S
N49          N50   1.327       .  A
N49          C53   1.370       .  A
N49         Cu57   2.216       .  S
N50          C51   1.345       .  A
N50         Cu56   2.053       .  S
C51          C52   1.372       .  A
C51          H54   1.082       .  S
C52          C53   1.413       .  A
C52         C909   1.480       .  S
C53          H55   1.082       .  S
Cu56         N59   2.053       .  S
Cu57         N67   2.216       .  S
Cu58         N60   2.052       .  S
Cu58         N66   2.052       .  S
N59          N60   1.317       .  A
N59          C63   1.343       .  A
N60          C61   1.341       .  A
C61          C62   1.385       .  A
C61          H64   1.081       .  S
C62          C63   1.382       .  A
C62         C914   1.471       .  S
C63          H65   1.081       .  S
N66          N67   1.326       .  A
N66          C70   1.345       .  A
N67          C68   1.370       .  A
C68          C69   1.414       .  A
C68          H71   1.081       .  S
C69          C70   1.373       .  A
C69         C911   1.481       .  S
C70          H72   1.082       .  S
N73          N74   1.326       .  A
N73          C77   1.370       .  A
N73         Cu81   2.217   1_554  S
N74          C75   1.346       .  A
N74         Cu80   2.051       .  S
C75          C76   1.373       .  A
C75          H78   1.082       .  S
C76          C77   1.414       .  A
C76         C907   1.482       .  S
C77          H79   1.082       .  S
Cu80         N83   2.050       .  S
Cu81         N91   2.217       .  S
Cu82         N84   2.065       .  S
Cu82         N90   2.067       .  S
N83          N84   1.318   1_554  A
N83          C87   1.342       .  A
N84          C85   1.344       .  A
C85          C86   1.384       .  A
C85          H88   1.082       .  S
C86          C87   1.384   1_556  A
C86         C903   1.472       .  S
C87          H89   1.081       .  S
N90          N91   1.328       .  A
N90          C94   1.348       .  A
N91          C92   1.370       .  A
C92          C93   1.413       .  A
C92          H95   1.081       .  S
C93          C94   1.376       .  A
C93         C901   1.485       .  S
C94          H96   1.082       .  S
N97          N98   1.327       .  A
N97         C101   1.369       .  A
N97        Cu105   2.211       .  S
N98          C99   1.347       .  A
N98        Cu104   2.062       .  S
C99         C100   1.376       .  A
C99         H102   1.082       .  S
C100        C101   1.411       .  A
C100        C900   1.482       .  S
C101        H103   1.081       .  S
Cu104       N107   2.059       .  S
Cu105       N115   2.211   1_545  S
Cu106       N108   2.063       .  S
Cu106       N114   2.066       .  S
N107        N108   1.318   1_545  A
N107        C111   1.343       .  A
N108        C109   1.343       .  A
C109        C110   1.387   1_565  A
C109        H112   1.081       .  S
C110        C111   1.382       .  A
C110        C895   1.475       .  S
C111        H113   1.082       .  S
N114        N115   1.327       .  A
N114        C118   1.348       .  A
N115        C116   1.369       .  A
C116        C117   1.412       .  A
C116        H119   1.081       .  S
C117        C118   1.377       .  A
C117        C894   1.484       .  S
C118        H120   1.082       .  S
N121        N122   1.326       .  A
N121        C125   1.369       .  A
N121       Cu129   2.205       .  S
N122        C123   1.346       .  A
N122       Cu128   2.059       .  S
C123        C124   1.375       .  A
C123        H126   1.082       .  S
C124        C125   1.412       .  A
C124        C886   1.481       .  S
C125        H127   1.081       .  S
Cu128       N131   2.059       .  S
Cu129       N139   2.206       .  S
Cu130       N132   2.079       .  S
Cu130       N138   2.080       .  S
N131        N132   1.319       .  A
N131        C135   1.344       .  A
N132        C133   1.347       .  A
C133        C134   1.390       .  A
C133        H136   1.082       .  S
C134        C135   1.382       .  A
C134        C889   1.479       .  S
C135        H137   1.081       .  S
N138        N139   1.328       .  A
N138        C142   1.349       .  A
N139        C140   1.368       .  A
C140        C141   1.410       .  A
C140        H143   1.081       .  S
C141        C142   1.379       .  A
C141        C888   1.484       .  S
C142        H144   1.082       .  S
N145        N146   1.328       .  A
N145        C149   1.369       .  A
N145       Cu153   2.211   1_554  S
N146        C147   1.346       .  A
N146       Cu152   2.064       .  S
C147        C148   1.374       .  A
C147        H150   1.082       .  S
C148        C149   1.411       .  A
C148        C877   1.479       .  S
C149        H151   1.082       .  S
Cu152       N155   2.063       .  S
Cu153       N163   2.210       .  S
Cu154       N156   2.034       .  S
Cu154       N162   2.034       .  S
N155        N156   1.316   1_554  A
N155        C159   1.342       .  A
N156        C157   1.341       .  A
C157        C158   1.378       .  A
C157        H160   1.081       .  S
C158        C159   1.390   1_556  A
C158        C881   1.472       .  S
C159        H161   1.081       .  S
N162        N163   1.325       .  A
N162        C166   1.342       .  A
N163        C164   1.370       .  A
C164        C165   1.413       .  A
C164        H167   1.081       .  S
C165        C166   1.369       .  A
C165        C879   1.475       .  S
C166        H168   1.082       .  S
O169       Cu177   1.985       .  S
O169        C179   1.273   1_556  A
O170       Cu177   1.985   1_455  S
O170        C180   1.276   1_556  A
O171       Cu177   2.024       .  S
O171        C181   1.280   1_556  A
O172       Cu177   2.019   1_455  S
O172        C182   1.281   1_556  A
O173       Cu178   1.977   1_455  S
O173        C182   1.272       .  A
O174       Cu178   1.974       .  S
O174        C181   1.272       .  A
O175       Cu178   2.017   1_455  S
O175        C180   1.279       .  A
O176       Cu178   2.017       .  S
O176        C179   1.280       .  A
Cu177      Cu178   2.377   1_556  S
C179        C869   1.467   1_554  S
C180        C904   1.472       .  S
C181        C874   1.465       .  S
C182        C882   1.466       .  S
N183        N184   1.327       .  A
N183        C187   1.370       .  A
N183       Cu191   2.217   1_565  S
N184        C185   1.345       .  A
N184       Cu190   2.050       .  S
C185        C186   1.373       .  A
C185        H188   1.082       .  S
C186        C187   1.413       .  A
C186        C863   1.481       .  S
C187        H189   1.081       .  S
Cu190       N193   2.051       .  S
Cu191       N201   2.216       .  S
Cu192       N194   2.045       .  S
Cu192       N200   2.044       .  S
N193        N194   1.317   1_565  A
N193        C197   1.345       .  A
N194        C195   1.338       .  A
C195        C196   1.384       .  A
C195        H198   1.082       .  S
C196        C197   1.382   1_545  A
C196        C865   1.470   1_545  S
C197        H199   1.081       .  S
N200        N201   1.325       .  A
N200        C204   1.344       .  A
N201        C202   1.371       .  A
C202        C203   1.415       .  A
C202        H205   1.082       .  S
C203        C204   1.372       .  A
C203        C861   1.480       .  S
C204        H206   1.082       .  S
O207       Cu215   1.997       .  S
O207        C217   1.277       .  A
O208       Cu215   1.993   1_554  S
O208        C218   1.275       .  A
O209       Cu215   2.000       .  S
O209        C219   1.276       .  A
O210       Cu215   2.003   1_554  S
O210        C220   1.278   1_545  A
O211       Cu216   2.003   1_554  S
O211        C220   1.276       .  A
O212       Cu216   2.002       .  S
O212        C219   1.278   1_565  A
O213       Cu216   2.003   1_554  S
O213        C218   1.278   1_565  A
O214       Cu216   2.004       .  S
O214        C217   1.277   1_565  A
Cu215      Cu216   2.377   1_545  S
C217        C857   1.469   1_545  S
C218        C866   1.465       .  S
C219        C853   1.468       .  S
C220        C896   1.471       .  S
N221        N222   1.327       .  A
N221        C225   1.370       .  A
N221       Cu229   2.215       .  S
N222        C223   1.346       .  A
N222       Cu228   2.059       .  S
C223        C224   1.375       .  A
C223        H226   1.082       .  S
C224        C225   1.413       .  A
C224        C852   1.483       .  S
C225        H227   1.081       .  S
Cu228       N231   2.058       .  S
Cu229       N239   2.216   1_554  S
Cu230       N232   2.045       .  S
Cu230       N238   2.045       .  S
N231        N232   1.316   1_554  A
N231        C235   1.339       .  A
N232        C233   1.344       .  A
C233        C234   1.381       .  A
C233        H236   1.081       .  S
C234        C235   1.389   1_556  A
C234        C873   1.475       .  S
C235        H237   1.081       .  S
N238        N239   1.327       .  A
N238        C242   1.343       .  A
N239        C240   1.370       .  A
C240        C241   1.414       .  A
C240        H243   1.081       .  S
C241        C242   1.370       .  A
C241        C850   1.478       .  S
C242        H244   1.082       .  S
C245        H246   1.111       .  S
C245        C251   1.556       .  S
C245        C250   1.559       .  S
C245        C249   1.559       .  S
C247        H248   1.111       .  S
C247        C253   1.559       .  S
C247        C252   1.556       .  S
C247        C254   1.559       .  S
C249        C252   1.382       .  D
C249        C919   1.482       .  S
C250        C253   1.382       .  D
C250        C887   1.490       .  S
C251        C254   1.382       .  D
C251        C845   1.480       .  S
C252        C864   1.488       .  S
C253        C847   1.478       .  S
C254        C843   1.485       .  S
N255        N256   1.327       .  A
N255        C259   1.369       .  A
N255       Cu263   2.206       .  S
N256        C257   1.345       .  A
N256       Cu262   2.059       .  S
C257        C258   1.373       .  A
C257        H260   1.082       .  S
C258        C259   1.412       .  A
C258        C842   1.479       .  S
C259        H261   1.082       .  S
Cu262       N265   2.058       .  S
Cu263       N273   2.205       .  S
Cu264       N266   2.044       .  S
Cu264       N272   2.046       .  S
N265        N266   1.316       .  A
N265        C269   1.342       .  A
N266        C267   1.341       .  A
C267        C268   1.380       .  A
C267        H270   1.083       .  S
C268        C269   1.388       .  A
C268        C838   1.472       .  S
C269        H271   1.081       .  S
N272        N273   1.326       .  A
N272        C276   1.343       .  A
N273        C274   1.368       .  A
C274        C275   1.410       .  A
C274        H277   1.081       .  S
C275        C276   1.371       .  A
C275        C846   1.473       .  S
C276        H278   1.082       .  S
C279        H280   1.111       .  S
C279        C285   1.562       .  S
C279        C284   1.565       .  S
C279        C283   1.562       .  S
C281        H282   1.111       .  S
C281        C287   1.560       .  S
C281        C286   1.561       .  S
C281        C288   1.559       .  S
C283        C286   1.383       .  D
C283        C851   1.489       .  S
C284        C287   1.386       .  D
C284        C862   1.487       .  S
C285        C288   1.382       .  D
C285        C835   1.492       .  S
C286        C841   1.486       .  S
C287        C833   1.493       .  S
C288        C928   1.482       .  S
N289        N290   1.328       .  A
N289        C293   1.369       .  A
N289       Cu297   2.210       .  S
N290        C291   1.350       .  A
N290       Cu296   2.077       .  S
C291        C292   1.380       .  A
C291        H294   1.082       .  S
C292        C293   1.411       .  A
C292        C834   1.487       .  S
C293        H295   1.082       .  S
Cu296       N299   2.075       .  S
Cu297       N307   2.210       .  S
Cu298       N300   2.046       .  S
Cu298       N306   2.047       .  S
N299        N300   1.318       .  A
N299        C303   1.343       .  A
N300        C301   1.343       .  A
C301        C302   1.379       .  A
C301        H304   1.083       .  S
C302        C303   1.390       .  A
C302        C829   1.476       .  S
C303        H305   1.081       .  S
N306        N307   1.326       .  A
N306        C310   1.344       .  A
N307        C308   1.369       .  A
C308        C309   1.412       .  A
C308        H311   1.082       .  S
C309        C310   1.373       .  A
C309        C828   1.479       .  S
C310        H312   1.082       .  S
N313        N314   1.328       .  A
N313        C317   1.368       .  A
N313       Cu321   2.205   1_455  S
N314        C315   1.348       .  A
N314       Cu320   2.073       .  S
C315        C316   1.377       .  A
C315        H318   1.082       .  S
C316        C317   1.410       .  A
C316        C819   1.482       .  S
C317        H319   1.082       .  S
Cu320       N323   2.072       .  S
Cu321       N331   2.204       .  S
Cu322       N324   2.041       .  S
Cu322       N330   2.042       .  S
N323        N324   1.317   1_455  A
N323        C327   1.342       .  A
N324        C325   1.344       .  A
C325        C326   1.379       .  A
C325        H328   1.082       .  S
C326        C327   1.391   1_655  A
C326        C823   1.477       .  S
C327        H329   1.081       .  S
N330        N331   1.326       .  A
N330        C334   1.342       .  A
N331        C332   1.368       .  A
C332        C333   1.411       .  A
C332        H335   1.082       .  S
C333        C334   1.370       .  A
C333        C821   1.473       .  S
C334        H336   1.082       .  S
O337       Cu345   1.962       .  S
O337        C347   1.270   1_455  A
O338       Cu345   1.977   1_565  S
O338        C348   1.272   1_455  A
O339       Cu345   2.032       .  S
O339        C349   1.282   1_455  A
O340       Cu345   2.030   1_565  S
O340        C350   1.283   1_455  A
O341       Cu346   1.974   1_565  S
O341        C350   1.271       .  A
O342       Cu346   1.971       .  S
O342        C349   1.271       .  A
O343       Cu346   2.036   1_565  S
O343        C348   1.282       .  A
O344       Cu346   2.042       .  S
O344        C347   1.283       .  A
Cu345      Cu346   2.377   1_455  S
C347        C824   1.467   1_655  S
C348        C815   1.470   1_655  S
C349        C811   1.466       .  S
C350        C808   1.468       .  S
N351        N352   1.327       .  A
N351        C355   1.370       .  A
N351       Cu359   2.214       .  S
N352        C353   1.344       .  A
N352       Cu358   2.051       .  S
C353        C354   1.371       .  A
C353        H356   1.082       .  S
C354        C355   1.413       .  A
C354        C802   1.479       .  S
C355        H357   1.082       .  S
Cu358       N361   2.050       .  S
Cu359       N369   2.214       .  S
Cu360       N362   2.050       .  S
Cu360       N368   2.050       .  S
N361        N362   1.316       .  A
N361        C365   1.343       .  A
N362        C363   1.342       .  A
C363        C364   1.382       .  A
C363        H366   1.082       .  S
C364        C365   1.387       .  A
C364        C803   1.473       .  S
C365        H367   1.081       .  S
N368        N369   1.327       .  A
N368        C372   1.343       .  A
N369        C370   1.371       .  A
C370        C371   1.414       .  A
C370        H373   1.081       .  S
C371        C372   1.371       .  A
C371        C799   1.478       .  S
C372        H374   1.082       .  S
N375        N376   1.326       .  A
N375        C379   1.370       .  A
N375       Cu383   2.210       .  S
N376        C377   1.344       .  A
N376       Cu382   2.049       .  S
C377        C378   1.372       .  A
C377        H380   1.082       .  S
C378        C379   1.413       .  A
C378        C797   1.479       .  S
C379        H381   1.082       .  S
Cu382       N385   2.049       .  S
Cu383       N393   2.211   1_545  S
Cu384       N386   2.067       .  S
Cu384       N392   2.069       .  S
N385        N386   1.318   1_545  A
N385        C389   1.343       .  A
N386        C387   1.343       .  A
C387        C388   1.387   1_565  A
C387        H390   1.081       .  S
C388        C389   1.381       .  A
C388        C858   1.472       .  S
C389        H391   1.081       .  S
N392        N393   1.328       .  A
N392        C396   1.348       .  A
N393        C394   1.369       .  A
C394        C395   1.411       .  A
C394        H397   1.082       .  S
C395        C396   1.377       .  A
C395        C795   1.483       .  S
C396        H398   1.082       .  S
C399        H400   1.111       .  S
C399        C405   1.559       .  S
C399        C404   1.558       .  S
C399        C403   1.561       .  S
C401        H402   1.111       .  S
C401        C407   1.562       .  S
C401        C406   1.562       .  S
C401        C408   1.565       .  S
C403        C406   1.384       .  D
C403        C801   1.485       .  S
C404        C407   1.382       .  D
C404        C794   1.489       .  S
C405        C408   1.384       .  D
C405        C910   1.487       .  S
C406        C820   1.488       .  S
C407        C798   1.486       .  S
C408        C902   1.491       .  S
N409        N410   1.324       .  A
N409        C413   1.371       .  A
N409       Cu417   2.218       .  S
N410        C411   1.340       .  A
N410       Cu416   2.024       .  S
C411        C412   1.366       .  A
C411        H414   1.082       .  S
C412        C413   1.416       .  A
C412        C791   1.475       .  S
C413        H415   1.081       .  S
Cu416       N419   2.026       .  S
Cu417       N427   2.219       .  S
Cu418       N420   2.059       .  S
Cu418       N426   2.061       .  S
N419        N420   1.315       .  A
N419        C423   1.339       .  A
N420        C421   1.342       .  A
C421        C422   1.389       .  A
C421        H424   1.081       .  S
C422        C423   1.377       .  A
C422        C788   1.467       .  S
C423        H425   1.082       .  S
N426        N427   1.328       .  A
N426        C430   1.346       .  A
N427        C428   1.370       .  A
C428        C429   1.413       .  A
C428        H431   1.081       .  S
C429        C430   1.374       .  A
C429        C793   1.482       .  S
C430        H432   1.082       .  S
C433        H434   1.111       .  S
C433        C439   1.561       .  S
C433        C438   1.561       .  S
C433        C437   1.561       .  S
C435        H436   1.111       .  S
C435        C441   1.558       .  S
C435        C440   1.558       .  S
C435        C442   1.557       .  S
C437        C440   1.380       .  D
C437        C925   1.488       .  S
C438        C441   1.383       .  D
C438        C785   1.485       .  S
C439        C442   1.385       .  D
C439        C792   1.482       .  S
C440        C822   1.481       .  S
C441        C849   1.485       .  S
C442        C784   1.490       .  S
N443        N444   1.326       .  A
N443        C447   1.369       .  A
N443       Cu451   2.208       .  S
N444        C445   1.345       .  A
N444       Cu450   2.054       .  S
C445        C446   1.373       .  A
C445        H448   1.082       .  S
C446        C447   1.412       .  A
C446        C786   1.479       .  S
C447        H449   1.081       .  S
Cu450       N453   2.052       .  S
Cu451       N461   2.209       .  S
Cu452       N454   2.060       .  S
Cu452       N460   2.062       .  S
N453        N454   1.317       .  A
N453        C457   1.342       .  A
N454        C455   1.344       .  A
C455        C456   1.388       .  A
C455        H458   1.082       .  S
C456        C457   1.380       .  A
C456        C779   1.473       .  S
C457        H459   1.081       .  S
N460        N461   1.328       .  A
N460        C464   1.346       .  A
N461        C462   1.369       .  A
C462        C463   1.411       .  A
C462        H465   1.081       .  S
C463        C464   1.374       .  A
C463        C777   1.480       .  S
C464        H466   1.082       .  S
C467        H468   1.111       .  S
C467        C473   1.563       .  S
C467        C472   1.565       .  S
C467        C471   1.559       .  S
C469        H470   1.111       .  S
C469        C475   1.558       .  S
C469        C474   1.562       .  S
C469        C476   1.559       .  S
C471        C474   1.385       .  D
C471        C773   1.487       .  S
C472        C475   1.384       .  D
C472        C776   1.490       .  S
C473        C476   1.381       .  D
C473        C771   1.489       .  S
C474        C770   1.485       .  S
C475        C885   1.487       .  S
C476        C778   1.487       .  S
N477        N478   1.328       .  A
N477        C481   1.369       .  A
N477       Cu485   2.212       .  S
N478        C479   1.345       .  A
N478       Cu484   2.059       .  S
C479        C480   1.372       .  A
C479        H482   1.082       .  S
C480        C481   1.412       .  A
C480        C769   1.479       .  S
C481        H483   1.081       .  S
Cu484       N487   2.058       .  S
Cu485       N495   2.210       .  S
Cu486       N488   2.031       .  S
Cu486       N494   2.031       .  S
N487        N488   1.315       .  A
N487        C491   1.342       .  A
N488        C489   1.340       .  A
C489        C490   1.382       .  A
C489        H492   1.081       .  S
C490        C491   1.384       .  A
C490        C765   1.466       .  S
C491        H493   1.082       .  S
N494        N495   1.325       .  A
N494        C498   1.341       .  A
N495        C496   1.370       .  A
C496        C497   1.413       .  A
C496        H499   1.081       .  S
C497        C498   1.368       .  A
C497        C764   1.474       .  S
C498        H500   1.082       .  S
C501        H502   1.111       .  S
C501        C507   1.557       .  S
C501        C506   1.558       .  S
C501        C505   1.559       .  S
C503        H504   1.111       .  S
C503        C509   1.561       .  S
C503        C508   1.561       .  S
C503        C510   1.562       .  S
C505        C508   1.383       .  D
C505        C760   1.483       .  S
C506        C509   1.382       .  D
C506        C796   1.489       .  S
C507        C510   1.384       .  D
C507        C880   1.481       .  S
C508        C761   1.492       .  S
C509        C763   1.481       .  S
C510        C912   1.488       .  S
N511        N512   1.327       .  A
N511        C515   1.368       .  A
N511       Cu519   2.203   1_455  S
N512        C513   1.348       .  A
N512       Cu518   2.072       .  S
C513        C514   1.377       .  A
C513        H516   1.082       .  S
C514        C515   1.410       .  A
C514        C757   1.482       .  S
C515        H517   1.081       .  S
Cu518       N521   2.070       .  S
Cu519       N529   2.202       .  S
Cu520       N522   2.042       .  S
Cu520       N528   2.042       .  S
N521        N522   1.317   1_455  A
N521        C525   1.342       .  A
N522        C523   1.344       .  A
C523        C524   1.381       .  A
C523        H526   1.082       .  S
C524        C525   1.391   1_655  A
C524        C816   1.479       .  S
C525        H527   1.081       .  S
N528        N529   1.326       .  A
N528        C532   1.342       .  A
N529        C530   1.368       .  A
C530        C531   1.410       .  A
C530        H533   1.082       .  S
C531        C532   1.369       .  A
C531        C848   1.471       .  S
C532        H534   1.082       .  S
C535        H536   1.111       .  S
C535        C541   1.561       .  S
C535        C540   1.563       .  S
C535        C539   1.564       .  S
C537        H538   1.111       .  S
C537        C543   1.559       .  S
C537        C542   1.561       .  S
C537        C544   1.561       .  S
C539        C542   1.386       .  D
C539        C753   1.493       .  S
C540        C543   1.382       .  D
C540        C918   1.484       .  S
C541        C544   1.385       .  D
C541        C755   1.490       .  S
C542        C758   1.488       .  S
C543        C893   1.491       .  S
C544        C878   1.486       .  S
N545        N546   1.326       .  A
N545        C549   1.372       .  A
N545       Cu553   2.224       .  S
N546        C547   1.344       .  A
N546       Cu552   2.044       .  S
C547        C548   1.371       .  A
C547        H550   1.082       .  S
C548        C549   1.416       .  A
C548        C747   1.482       .  S
C549        H551   1.082       .  S
Cu552       N555   2.045       .  S
Cu553       N563   2.224       .  S
Cu554       N556   2.056       .  S
Cu554       N562   2.057       .  S
N555        N556   1.316       .  A
N555        C559   1.341       .  A
N556        C557   1.343       .  A
C557        C558   1.383       .  A
C557        H560   1.081       .  S
C558        C559   1.385       .  A
C558        C750   1.471       .  S
C559        H561   1.082       .  S
N562        N563   1.328       .  A
N562        C566   1.345       .  A
N563        C564   1.372       .  A
C564        C565   1.415       .  A
C564        H567   1.081       .  S
C565        C566   1.372       .  A
C565        C756   1.483       .  S
C566        H568   1.082       .  S
N569        N570   1.326       .  A
N569        C573   1.372       .  A
N569       Cu577   2.223       .  S
N570        C571   1.346       .  A
N570       Cu576   2.051       .  S
C571        C572   1.373       .  A
C571        H574   1.083       .  S
C572        C573   1.416       .  A
C572        C762   1.485       .  S
C573        H575   1.082       .  S
Cu576       N579   2.050       .  S
Cu577       N587   2.223       .  S
Cu578       N580   2.066       .  S
Cu578       N586   2.068       .  S
N579        N580   1.318       .  A
N579        C583   1.342       .  A
N580        C581   1.344       .  A
C581        C582   1.388       .  A
C581        H584   1.081       .  S
C582        C583   1.380       .  A
C582        C743   1.473       .  S
C583        H585   1.082       .  S
N586        N587   1.328       .  A
N586        C590   1.348       .  A
N587        C588   1.371       .  A
C588        C589   1.414       .  A
C588        H591   1.081       .  S
C589        C590   1.376       .  A
C589        C754   1.487       .  S
C590        H592   1.082       .  S
N593        N594   1.323       .  A
N593        C597   1.370       .  A
N593       Cu601   2.210   1_455  S
N594        C595   1.341       .  A
N594       Cu600   2.024       .  S
C595        C596   1.368       .  A
C595        H598   1.082       .  S
C596        C597   1.415       .  A
C596        C759   1.475       .  S
C597        H599   1.082       .  S
Cu600       N603   2.026       .  S
Cu601       N611   2.213       .  S
Cu602       N604   2.084       .  S
Cu602       N610   2.086       .  S
N603        N604   1.316   1_455  A
N603        C607   1.339       .  A
N604        C605   1.347       .  A
C605        C606   1.394   1_655  A
C605        H608   1.081       .  S
C606        C607   1.375       .  A
C606        C807   1.474       .  S
C607        H609   1.082       .  S
N610        N611   1.330       .  A
N610        C614   1.349       .  A
N611        C612   1.369       .  A
C612        C613   1.410       .  A
C612        H615   1.081       .  S
C613        C614   1.378       .  A
C613        C775   1.484       .  S
C614        H616   1.082       .  S
N617        N618   1.326       .  A
N617        C621   1.371       .  A
N617       Cu625   2.221       .  S
N618        C619   1.345       .  A
N618       Cu624   2.052       .  S
C619        C620   1.373       .  A
C619        H622   1.082       .  S
C620        C621   1.415       .  A
C620        C783   1.484       .  S
C621        H623   1.081       .  S
Cu624       N627   2.051       .  S
Cu625       N635   2.221   1_545  S
Cu626       N628   2.051       .  S
Cu626       N634   2.052       .  S
N627        N628   1.316   1_545  A
N627        C631   1.340       .  A
N628        C629   1.343       .  A
C629        C630   1.383   1_565  A
C629        H632   1.082       .  S
C630        C631   1.387       .  A
C630        C854   1.473   1_545  S
C631        H633   1.081       .  S
N634        N635   1.327       .  A
N634        C638   1.344       .  A
N635        C636   1.371       .  A
C636        C637   1.414       .  A
C636        H639   1.081       .  S
C637        C638   1.372       .  A
C637        C774   1.481       .  S
C638        H640   1.082       .  S
N641        N642   1.326       .  A
N641        C645   1.371       .  A
N641       Cu649   2.220       .  S
N642        C643   1.344       .  A
N642       Cu648   2.045       .  S
C643        C644   1.371       .  A
C643        H646   1.082       .  S
C644        C645   1.414       .  A
C644        C741   1.481       .  S
C645        H647   1.081       .  S
Cu648       N651   2.043       .  S
Cu649       N659   2.220   1_455  S
Cu650       N652   2.063       .  S
Cu650       N658   2.065       .  S
N651        N652   1.317   1_455  A
N651        C655   1.344       .  A
N652        C653   1.341       .  A
C653        C654   1.390   1_655  A
C653        H656   1.081       .  S
C654        C655   1.380       .  A
C654        C812   1.478       .  S
C655        H657   1.082       .  S
N658        N659   1.327       .  A
N658        C662   1.348       .  A
N659        C660   1.370       .  A
C660        C661   1.413       .  A
C660        H663   1.081       .  S
C661        C662   1.377       .  A
C661        C836   1.486       .  S
C662        H664   1.082       .  S
C665        H666   1.111       .  S
C665        C671   1.557       .  S
C665        C670   1.558       .  S
C665        C669   1.561       .  S
C667        H668   1.111       .  S
C667        C673   1.564       .  S
C667        C672   1.559       .  S
C667        C674   1.562       .  S
C669        C672   1.386       .  D
C669        C748   1.489       .  S
C670        C673   1.384       .  D
C670        C827   1.485       .  S
C671        C674   1.383       .  D
C671        C800   1.486       .  S
C672        C908   1.488       .  S
C673        C899   1.488       .  S
C674        C742   1.488       .  S
N675        N676   1.327       .  A
N675        C679   1.370       .  A
N675       Cu683   2.217   1_554  S
N676        C677   1.343       .  A
N676       Cu682   2.044       .  S
C677        C678   1.370       .  A
C677        H680   1.082       .  S
C678        C679   1.414       .  A
C678        C844   1.478       .  S
C679        H681   1.081       .  S
Cu682       N685   2.045       .  S
Cu683       N693   2.217       .  S
Cu684       N686   2.053       .  S
Cu684       N692   2.053       .  S
N685        N686   1.316   1_554  A
N685        C689   1.343       .  A
N686        C687   1.341       .  A
C687        C688   1.387   1_556  A
C687        H690   1.081       .  S
C688        C689   1.381       .  A
C688        C870   1.473       .  S
C689        H691   1.083       .  S
N692        N693   1.326       .  A
N692        C696   1.345       .  A
N693        C694   1.371       .  A
C694        C695   1.414       .  A
C694        H697   1.081       .  S
C695        C696   1.373       .  A
C695        C772   1.482       .  S
C696        H698   1.082       .  S
O699       Cu707   1.995       .  S
O699        C709   1.277       .  A
O700       Cu707   1.990   1_554  S
O700        C710   1.274       .  A
O701       Cu707   2.008   1_554  S
O701        C711   1.277       .  A
O702       Cu707   2.008       .  S
O702        C712   1.279       .  A
O703       Cu708   2.000   1_556  S
O703        C712   1.275       .  A
O704       Cu708   1.994       .  S
O704        C711   1.277       .  A
O705       Cu708   2.008       .  S
O705        C710   1.279       .  A
O706       Cu708   2.004   1_556  S
O706        C709   1.277       .  A
Cu707      Cu708   2.377   1_556  S
C709        C913   1.469       .  S
C710        C837   1.467       .  S
C711        C749   1.470       .  S
C712        C780   1.472       .  S
O713       Cu721   1.986       .  S
O713        C723   1.273       .  A
O714       Cu721   1.985   1_565  S
O714        C724   1.273       .  A
O715       Cu721   2.022   1_565  S
O715        C725   1.279       .  A
O716       Cu721   2.027       .  S
O716        C726   1.282       .  A
O717       Cu722   1.976       .  S
O717        C726   1.272       .  A
O718       Cu722   1.969   1_565  S
O718        C725   1.274       .  A
O719       Cu722   1.997   1_565  S
O719        C724   1.279       .  A
O720       Cu722   2.001       .  S
O720        C723   1.279       .  A
Cu721      Cu722   2.378       .  S
C723        C787   1.463       .  S
C724        C922   1.462       .  S
C725        C766   1.468       .  S
C726        C830   1.468       .  S
O727       Cu735   2.013   1_655  S
O727        C737   1.279       .  A
O728       Cu735   2.009       .  S
O728        C738   1.277       .  A
O729       Cu735   2.008       .  S
O729        C739   1.279       .  A
O730       Cu735   2.011   1_655  S
O730        C740   1.277       .  A
O731       Cu736   2.003   1_655  S
O731        C740   1.278       .  A
O732       Cu736   1.996       .  S
O732        C739   1.275       .  A
O733       Cu736   2.002       .  S
O733        C738   1.278       .  A
O734       Cu736   2.009   1_655  S
O734        C737   1.277       .  A
Cu735      Cu736   2.375       .  S
C737        C890   1.477       .  S
C738        C804   1.472       .  S
C739        C744   1.470       .  S
C740        C929   1.473       .  S
C741        C742   1.233       .  T
C743        C744   1.341       .  D
C743        H745   1.086       .  S
C744        H746   1.085       .  S
C747        C748   1.234       .  T
C749        C750   1.343       .  D
C749        H751   1.084       .  S
C750        H752   1.085       .  S
C753        C754   1.236       .  T
C755        C756   1.234       .  T
C757        C758   1.233       .  T
C759        C760   1.230       .  T
C761        C762   1.235       .  T
C763        C764   1.229       .  T
C765        C766   1.345       .  D
C765        H767   1.087       .  S
C766        H768   1.085       .  S
C769        C770   1.231       .  T
C771        C772   1.233       .  T
C773        C774   1.233       .  T
C775        C776   1.234       .  T
C777        C778   1.232       .  T
C779        C780   1.341       .  D
C779        H781   1.085       .  S
C780        H782   1.084       .  S
C783        C784   1.234       .  T
C785        C786   1.231       .  T
C787        C788   1.338       .  D
C787        H789   1.084       .  S
C788        H790   1.086       .  S
C791        C792   1.230       .  T
C793        C794   1.234       .  T
C795        C796   1.234       .  T
C797        C798   1.232       .  T
C799        C800   1.232       .  T
C801        C802   1.232       .  T
C803        C804   1.343       .  D
C803        H805   1.086       .  S
C804        H806   1.085       .  S
C807        C808   1.336   1_455  D
C807        H809   1.087       .  S
C808        H810   1.086       .  S
C811        C812   1.339   1_655  D
C811        H813   1.084       .  S
C812        H814   1.086       .  S
C815        C816   1.339   1_455  D
C815        H817   1.085       .  S
C816        H818   1.086       .  S
C819        C820   1.233       .  T
C821        C822   1.229       .  T
C823        C824   1.336   1_655  D
C823        H825   1.087       .  S
C824        H826   1.086       .  S
C827        C828   1.231       .  T
C829        C830   1.338       .  D
C829        H831   1.087       .  S
C830        H832   1.086       .  S
C833        C834   1.236       .  T
C835        C836   1.235       .  T
C837        C838   1.340       .  D
C837        H839   1.086       .  S
C838        H840   1.087       .  S
C841        C842   1.232       .  T
C843        C844   1.231       .  T
C845        C846   1.228       .  T
C847        C848   1.227       .  T
C849        C850   1.231       .  T
C851        C852   1.234       .  T
C853        C854   1.342   1_545  D
C853        H855   1.084       .  S
C854        H856   1.086       .  S
C857        C858   1.342   1_565  D
C857        H859   1.085       .  S
C858        H860   1.086       .  S
C861        C862   1.233       .  T
C863        C864   1.233       .  T
C865        C866   1.340   1_565  D
C865        H867   1.086       .  S
C866        H868   1.085       .  S
C869        C870   1.339   1_556  D
C869        H871   1.086       .  S
C870        H872   1.087       .  S
C873        C874   1.338   1_556  D
C873        H875   1.086       .  S
C874        H876   1.084       .  S
C877        C878   1.232       .  T
C879        C880   1.229       .  T
C881        C882   1.337   1_556  D
C881        H883   1.086       .  S
C882        H884   1.084       .  S
C885        C886   1.232       .  T
C887        C888   1.234       .  T
C889        C890   1.343       .  D
C889        H891   1.085       .  S
C890        H892   1.085       .  S
C893        C894   1.235       .  T
C895        C896   1.343   1_545  D
C895        H897   1.086       .  S
C896        H898   1.084       .  S
C899        C900   1.233       .  T
C901        C902   1.235       .  T
C903        C904   1.345   1_556  D
C903        H905   1.086       .  S
C904        H906   1.085       .  S
C907        C908   1.233       .  T
C909        C910   1.232       .  T
C911        C912   1.233       .  T
C913        C914   1.343       .  D
C913        H915   1.084       .  S
C914        H916   1.086       .  S
C917        C918   1.230       .  T
C919        C920   1.230       .  T
C921        C922   1.337       .  D
C921        H923   1.087       .  S
C922        H924   1.086       .  S
C925        C926   1.233       .  T
C927        C928   1.230       .  T
C929        C930   1.345       .  D
C929        H931   1.084       .  S
C930        H932   1.086       .  S
