geometry optimzed in LAMMPS
_audit_creation_date              2020-11-30 
_audit_creation_method            'lammps2cif' 
_symmetry_space_group_name_H-M    'P1' 
_symmetry_Int_Tables_number       1 
_symmetry_cell_setting            triclinic 
loop_ 
_symmetry_equiv_pos_as_xyz 
  x,y,z 
_cell_length_a                    50.81521334 
_cell_length_b                    50.80258236125007 
_cell_length_c                    33.4062238761867 
_cell_angle_alpha                 90.33094066196838 
_cell_angle_beta                  90.28035774900177 
_cell_angle_gamma                 89.87380631312362 
loop_ 
_atom_site_label 
_atom_site_type_symbol 
_atom_site_fract_x 
_atom_site_fract_y 
_atom_site_fract_z 
_atom_site_charge 
O1          O  0.25305996  0.20331550  0.38767910    -0.79600
O2          O  0.25513199  0.21144156  0.61942147    -0.81100
O3          O  0.29959420  0.18231681  0.50324698    -0.78200
O4          O  0.21536458  0.17599480  0.50570681    -0.76500
O5          O  0.18260052  0.20638386  0.50216163    -0.78300
O6          O  0.32955485  0.21535902  0.50547164    -0.79300
O7          O  0.25528815  0.18069020  0.56880836    -0.80600
O8          O  0.25518744  0.17565750  0.44147072    -0.80900
Eu9        Eu  0.25575617  0.20151079  0.50367587     2.39200
O10         O  0.22913740  0.22775795  0.54521318    -0.88400
O11         O  0.28067193  0.22722340  0.45997156    -0.92000
C12         C  0.25420952  0.17985843  0.40344284     1.02700
C13         C  0.25488430  0.18728337  0.60599251     1.02500
C14         C  0.32336627  0.19089582  0.50460615     1.02500
C15         C  0.19092372  0.18237243  0.50381716     1.00300
H16         H  0.29277481  0.21965981  0.56088668     0.30100
O17         O  0.28112760  0.22976821  0.54464986    -1.00800
H18         H  0.21698335  0.21284971  0.44526876     0.30100
O19         O  0.22793852  0.22497395  0.46039740    -1.03300
O20         O  0.25256409  0.30328095  0.61313921    -0.80500
O21         O  0.25016663  0.29511921  0.38143815    -0.80100
O22         O  0.32960279  0.26024571  0.56285055    -0.78500
O23         O  0.17938260  0.25087893  0.56700354    -0.81900
O24         O  0.17786878  0.25074733  0.43851213    -0.79700
O25         O  0.32944265  0.25219567  0.43853305    -0.78400
O26         O  0.29160680  0.33015953  0.49314971    -0.79900
O27         O  0.20739415  0.32525717  0.49323823    -0.81800
O28         O  0.32453101  0.29986485  0.49246322    -0.78500
O29         O  0.17688628  0.29310909  0.49942356    -0.81200
O30         O  0.30099648  0.25910069  0.61570124    -0.77000
O31         O  0.29990807  0.24841165  0.38664398    -0.77000
O32         O  0.20662766  0.24962116  0.38585295    -0.76600
O33         O  0.20923564  0.25426669  0.61846677    -0.80100
O34         O  0.25123705  0.33089080  0.55906110    -0.79600
O35         O  0.24737640  0.32602911  0.43161621    -0.77900
Eu36       Eu  0.25443365  0.25638652  0.58681691     2.39800
Eu37       Eu  0.25303431  0.25030510  0.41475304     2.39600
Eu38       Eu  0.30521959  0.25627840  0.50049314     2.38400
Eu39       Eu  0.20123292  0.25114065  0.50215447     2.39900
Eu40       Eu  0.25087844  0.30537360  0.49716117     2.39800
O41         O  0.22620787  0.27627247  0.45772938    -0.92300
O42         O  0.27877524  0.28271618  0.54155924    -0.91200
C43         C  0.25183829  0.32660795  0.59698671     1.02900
C44         C  0.24773629  0.31929850  0.39441423     1.01600
C45         C  0.32463523  0.26019582  0.60051850     1.01000
C46         C  0.18528875  0.25235804  0.60450002     1.03000
C47         C  0.18291494  0.24994886  0.40079539     1.01900
C48         C  0.32386667  0.24946801  0.40120318     1.00800
C49         C  0.31599048  0.32369627  0.49065215     1.00800
C50         C  0.18340146  0.31744447  0.49497882     1.03400
H51         H  0.28855141  0.29049042  0.43865016     0.30800
O52         O  0.27803826  0.27945879  0.45577400    -1.04500
H53         H  0.21480446  0.29119097  0.55736277     0.32900
O54         O  0.22632634  0.27998606  0.54225978    -1.07000
N55         N  0.00187319  0.46398386  0.41265061    -0.36100
N56         N  0.04212588  0.00468976  0.42255145    -0.56600
N57         N  0.00179865  0.04534312  0.42539794    -0.36100
N58         N  0.46166857  0.00462212  0.41963023    -0.56600
C59         C  0.02326230  0.44912268  0.42136602     0.27500
C60         C  0.48046949  0.44909002  0.42045233     0.27500
C61         C  0.02304839  0.05968782  0.43651479     0.27500
C62         C  0.48023620  0.05972569  0.43467719     0.27500
C63         C  0.05767905  0.48389954  0.41688782     0.36100
C64         C  0.05787031  0.02604719  0.42327133     0.36100
C65         C  0.44574834  0.48340262  0.41171117     0.36100
C66         C  0.44563605  0.02579008  0.42078619     0.36100
C67         C  0.01534148  0.42416176  0.43275574    -0.21300
C68         C  0.48838913  0.42419302  0.43241895    -0.21300
C69         C  0.01491918  0.08395965  0.45112780    -0.21300
C70         C  0.48798610  0.08410676  0.44956854    -0.21300
C71         C  0.08363009  0.49210094  0.41490705    -0.22400
C72         C  0.08385322  0.01860180  0.41762657    -0.22400
C73         C  0.41969244  0.49109248  0.40760643    -0.22400
C74         C  0.41963716  0.01805462  0.41593961    -0.22400
C75         C  0.04979717  0.45743038  0.42045562    -0.17700
C76         C  0.45390311  0.45720830  0.41771376    -0.17700
C77         C  0.45369277  0.05147008  0.43118544    -0.17700
C78         C  0.04965046  0.05164651  0.43413181    -0.17700
H79         H  0.02766699  0.40774662  0.44148217     0.15200
H80         H  0.47606006  0.40780027  0.44080787     0.15200
H81         H  0.02707569  0.09990904  0.46219373     0.15200
H82         H  0.47557819  0.10026777  0.45915699     0.15200
H83         H  0.10103939  0.47989353  0.41244319     0.13500
H84         H  0.10104446  0.03114993  0.41784695     0.13400
H85         H  0.40259065  0.47856378  0.40448129     0.13500
H86         H  0.40212747  0.03016462  0.41729672     0.13400
H87         H  0.00191880  0.48265846  0.40019088     0.26700
H88         H  0.00200432  0.02739888  0.41053628     0.26700
O89         O  0.99345396  0.45303668  0.88099795    -0.79600
O90         O  0.00040046  0.44679177  0.11191366    -0.81100
O91         O  0.03489053  0.42030722  0.98955953    -0.78200
O92         O  0.44945566  0.42614639  0.99985667    -0.76500
O93         O  0.42001713  0.45975470  0.99851283    -0.78300
O94         O  0.06814813  0.45010751  0.99317818    -0.79300
O95         O  0.99696929  0.41929357  0.05763001    -0.80600
O96         O  0.99211971  0.42237069  0.93120506    -0.80900
Eu97       Eu  0.99384845  0.44467570  0.99563708     2.39200
O98         O  0.47015464  0.47069014  0.04114173    -0.88400
O99         O  0.02037906  0.47033820  0.95342212    -0.92000
C100        C  0.99279601  0.42880155  0.89406802     1.02700
C101        C  0.99928382  0.42340547  0.09561238     1.02500
C102        C  0.05942112  0.42632058  0.99105186     1.02500
C103        C  0.42574671  0.43523195  0.99986475     1.00300
H104        H  0.03422044  0.45595253  0.05196978     0.30100
O105        O  0.02285914  0.46804649  0.03777652    -1.00800
H106        H  0.45586209  0.46296991  0.94012021     0.30100
O107        O  0.46805047  0.47306652  0.95605675    -1.03300
O108        O  0.00175574  0.03843340  0.11900236    -0.80500
O109        O  0.99594026  0.04520943  0.88634688    -0.80100
O110        O  0.07252095  0.49458832  0.05852966    -0.78500
O111        O  0.42212141  0.49722481  0.06519639    -0.81900
O112        O  0.42021765  0.00503860  0.93960295    -0.79700
O113        O  0.07055675  0.99748820  0.93016891    -0.78400
O114        O  0.04234568  0.06804674  0.00515547    -0.79900
O115        O  0.45800160  0.07316837  0.01102534    -0.81800
O116        O  0.07293182  0.03603670  0.99892325    -0.78500
O117        O  0.42505753  0.04311906  0.01213768    -0.81200
O118        O  0.04605477  0.49245955  0.11304468    -0.77000
O119        O  0.03965179  0.99976742  0.88000733    -0.77000
O120        O  0.44805044  0.00390507  0.88576601    -0.76600
O121        O  0.45269909  0.49347121  0.11568540    -0.80100
O122        O  0.00323106  0.06936401  0.06926433    -0.79600
O123        O  0.99851957  0.07312649  0.94042406    -0.77900
Eu124      Eu  0.99904328  0.49355545  0.08535278     2.39800
Eu125      Eu  0.99461635  0.99883458  0.91296999     2.39600
Eu126      Eu  0.04885031  0.99444547  0.99520245     2.38400
Eu127      Eu  0.44514830  0.99995301  0.00159551     2.39900
Eu128      Eu  0.99901737  0.04860505  0.00323841     2.39800
O129        O  0.47089638  0.02571190  0.95934171    -0.92300
O130        O  0.02493388  0.01981334  0.04124382    -0.91200
C131        C  0.00333431  0.06262883  0.10642765     1.02900
C132        C  0.99711341  0.06861484  0.90243276     1.01600
C133        C  0.06931769  0.49322235  0.09653939     1.01000
C134        C  0.42846438  0.49500973  0.10228373     1.03000
C135        C  0.42470536  0.00567500  0.90174521     1.01900
C136        C  0.06392664  0.99957100  0.89301710     1.00800
C137        C  0.06632614  0.06037368  0.00285051     1.00800
C138        C  0.43363697  0.06687292  0.01471345     1.03400
H139        H  0.03396145  0.03429912  0.94156884     0.30800
O140        O  0.02268276  0.02288197  0.95701614    -1.04500
H141        H  0.46311715  0.03371702  0.06327514     0.32900
O142        O  0.47333571  0.02261493  0.04550709    -1.07000
N143        N  0.24897093  0.20936333  0.07522067    -0.36100
N144        N  0.28700333  0.25183676  0.08251098    -0.56600
N145        N  0.24466598  0.29055006  0.08159739    -0.36100
N146        N  0.20683450  0.24780752  0.07189612    -0.56600
C147        C  0.27152231  0.19604307  0.06826877     0.27500
C148        C  0.22904391  0.19393904  0.06209254     0.27500
C149        C  0.26549758  0.30657408  0.07572126     0.27500
C150        C  0.22287104  0.30450483  0.07197253     0.27500
C151        C  0.30374497  0.23134423  0.08588569     0.36100
C152        C  0.30173208  0.27380895  0.08546557     0.36100
C153        C  0.19209987  0.22575927  0.07058062     0.36100
C154        C  0.18982146  0.26816690  0.07402016     0.36100
C155        C  0.26578629  0.17160418  0.05160268    -0.21300
C156        C  0.23897653  0.17026954  0.04778215    -0.21300
C157        C  0.25665551  0.33144038  0.06507445    -0.21300
C158        C  0.22984110  0.33008803  0.06244124    -0.21300
C159        C  0.32918820  0.24031560  0.09223249    -0.22400
C160        C  0.32797557  0.26723706  0.09127169    -0.22400
C161        C  0.16558247  0.23210205  0.07228878    -0.22400
C162        C  0.16413917  0.25901863  0.07433419    -0.22400
C163        C  0.29722655  0.20502780  0.07680033    -0.17700
C164        C  0.20203734  0.20027406  0.06326393    -0.17700
C165        C  0.19685165  0.29483758  0.06997817    -0.17700
C166        C  0.29238556  0.29942521  0.07770184    -0.17700
H167        H  0.27948906  0.15632723  0.04274294     0.15200
H168        H  0.22807259  0.15378975  0.03551314     0.15200
H169        H  0.26833363  0.34868481  0.05864926     0.15200
H170        H  0.21702933  0.34606694  0.05347336     0.15200
H171        H  0.34700555  0.22869850  0.09464019     0.13500
H172        H  0.34467927  0.28035771  0.09314872     0.13400
H173        H  0.14899678  0.21879782  0.07061189     0.13500
H174        H  0.14622972  0.27059835  0.07451806     0.13400
H175        H  0.24719589  0.22684480  0.09118480     0.26700
H176        H  0.24516804  0.27152042  0.09251995     0.26700
C177        C  0.00315913  0.24474458  0.25010999    -0.01900
C178        C  0.24897032  0.99928164  0.25037888    -0.01900
C179        C  0.00452817  0.24743923  0.74992481    -0.01900
C180        C  0.24596369  0.50699030  0.74908748    -0.01900
C181        C  0.19038007  0.47787768  0.17789956    -0.04900
C182        C  0.17203465  0.49863228  0.18193756     0.09200
C183        C  0.18096838  0.02152987  0.20088308    -0.02300
C184        C  0.20657438  0.02374109  0.21798971    -0.00600
C185        C  0.22344727  0.50141228  0.22007617    -0.04200
C186        C  0.21635049  0.48013829  0.19356712     0.02800
C187        C  0.14521124  0.49705383  0.16147583     0.09700
C188        C  0.16323261  0.04399033  0.20155409     0.35600
C189        C  0.23491943  0.45973269  0.18250103     0.39000
C190        C  0.12190443  0.99751271  0.18273612    -0.04500
C191        C  0.09710719  0.99726317  0.16228850     0.02600
C192        C  0.09505405  0.49276893  0.12077884    -0.04100
C193        C  0.11958136  0.48903784  0.10040399    -0.00400
C194        C  0.14386426  0.49387453  0.11965397    -0.02900
C195        C  0.12268165  0.99868887  0.22608722     0.36300
C196        C  0.12077474  0.47796766  0.06029653     0.39900
C197        C  0.07330708  0.00138684  0.18514257     0.39100
C198        C  0.16771920  0.49558058  0.09591143     0.36000
C199        C  0.18177901  0.45310138  0.16027867     0.36700
C200        C  0.21586618  0.05036049  0.22456250     0.39900
N201        N  0.05451470  0.00483612  0.20390989    -0.38100
N202        N  0.12328316  0.99954559  0.26070833    -0.39700
N203        N  0.12222239  0.46876413  0.02862939    -0.37500
N204        N  0.18666405  0.49696713  0.07695058    -0.39900
N205        N  0.14900025  0.06179740  0.20236928    -0.39600
N206        N  0.22295136  0.07190952  0.22762688    -0.37300
N207        N  0.24878450  0.44320037  0.17127305    -0.38300
N208        N  0.17462103  0.43337000  0.14663169    -0.40000
C209        C  0.36863178  0.01727008  0.16263583    -0.04900
C210        C  0.35373218  0.49310928  0.16660932     0.09200
C211        C  0.36601255  0.46961040  0.15272999    -0.02300
C212        C  0.39176356  0.47006438  0.13609677    -0.00600
C213        C  0.40512464  0.49413486  0.13000563    -0.04200
C214        C  0.39280002  0.01773744  0.14146847     0.02800
C215        C  0.32595741  0.49279493  0.18455986     0.09700
C216        C  0.35156140  0.44502379  0.15320839     0.35600
C217        C  0.40280474  0.04273383  0.12749984     0.39000
C218        C  0.30505561  0.50774068  0.16791329    -0.04500
C219        C  0.28019482  0.50981398  0.18765511     0.02600
C220        C  0.27409375  0.49405128  0.22218955    -0.04100
C221        C  0.29437844  0.97481711  0.23183261    -0.00400
C222        C  0.32064850  0.97731028  0.21841102    -0.02900
C223        C  0.30916635  0.52155297  0.13049765     0.36300
C224        C  0.28699943  0.94824103  0.24132364     0.39900
C225        C  0.26121894  0.52755697  0.16988652     0.39100
C226        C  0.34136607  0.96317683  0.23928256     0.36000
C227        C  0.35807203  0.04163091  0.17868198     0.36700
C228        C  0.40371997  0.44578099  0.12215146     0.39900
N229        N  0.24715523  0.54156078  0.15283658    -0.38100
N230        N  0.31234772  0.53291892  0.10099146    -0.39700
N231        N  0.28162606  0.92636294  0.24567326    -0.37500
N232        N  0.35789521  0.95209913  0.25622826    -0.39900
N233        N  0.33996540  0.42544931  0.15383256    -0.39600
N234        N  0.41320258  0.42644293  0.11073988    -0.37300
N235        N  0.41007593  0.06274754  0.11549350    -0.38300
N236        N  0.34938493  0.06100985  0.19134406    -0.40000
C237        C  0.02623279  0.30394766  0.17872217    -0.04900
C238        C  0.00655071  0.32308472  0.18336366     0.09200
C239        C  0.48611648  0.31804227  0.20991511    -0.02300
C240        C  0.48389258  0.29347272  0.22980586    -0.00600
C241        C  0.00281135  0.27200560  0.22405872    -0.04200
C242        C  0.02477275  0.27911845  0.19859438     0.02800
C243        C  0.00626056  0.34865868  0.15986190     0.09700
C244        C  0.46790943  0.33959048  0.21872999     0.35600
C245        C  0.04650729  0.26139002  0.19056077     0.39000
C246        C  0.48663431  0.35259381  0.13043546    -0.04500
C247        C  0.48337789  0.37741311  0.11204238     0.02600
C248        C  0.00059389  0.39872216  0.12089891    -0.04100
C249        C  0.02054037  0.39463439  0.15014371    -0.00400
C250        C  0.02285581  0.37002306  0.17018082    -0.02900
C251        C  0.46923080  0.33099670  0.11963737     0.36300
C252        C  0.03945273  0.41522385  0.15866525     0.39900
C253        C  0.46163455  0.38091934  0.08439836     0.39100
C254        C  0.04192874  0.36678409  0.20218761     0.36000
C255        C  0.04872527  0.31030688  0.15393941     0.36700
C256        C  0.46286731  0.29359894  0.25877716     0.39900
N257        N  0.44408350  0.38322539  0.06256536    -0.38100
N258        N  0.45532253  0.31378708  0.11128336    -0.39700
N259        N  0.05485962  0.43137998  0.16561772    -0.37500
N260        N  0.05701346  0.36403013  0.22790184    -0.39900
N261        N  0.45373929  0.35682210  0.22594408    -0.39600
N262        N  0.44564539  0.29597120  0.28099062    -0.37300
N263        N  0.06465692  0.24908867  0.18106708    -0.38300
N264        N  0.06690077  0.31556500  0.13487932    -0.40000
C265        C  0.50102557  0.16740511  0.23131402    -0.04900
C266        C  0.99997276  0.16438731  0.18956397     0.09200
C267        C  0.99904765  0.18737287  0.16596571    -0.02300
C268        C  0.99991940  0.21315685  0.18354284    -0.00600
C269        C  0.00137910  0.21689016  0.22641838    -0.04200
C270        C  0.50101930  0.19274218  0.24956853     0.02800
C271        C  0.00162898  0.13691755  0.17076850     0.09700
C272        C  0.99784034  0.18433902  0.12271633     0.35600
C273        C  0.50476071  0.19271507  0.29265644     0.39000
C274        C  0.48173533  0.11776754  0.17732539    -0.04500
C275        C  0.48391170  0.09202111  0.16063498     0.02600
C276        C  0.00512722  0.08538199  0.13538764    -0.04100
C277        C  0.02588954  0.10363617  0.13157371    -0.00400
C278        C  0.02422534  0.12909812  0.14893189    -0.02900
C279        C  0.45884090  0.12453239  0.20104093     0.36300
C280        C  0.04982041  0.09552914  0.11153416     0.39900
C281        C  0.46488425  0.07200574  0.17060985     0.39100
C282        C  0.04600511  0.14714377  0.14391623     0.36000
C283        C  0.50454307  0.14403694  0.25586807     0.36700
C284        C  0.99896564  0.23490257  0.15576978     0.39900
N285        N  0.45035100  0.05565914  0.17981753    -0.38100
N286        N  0.44073603  0.12982056  0.22040573    -0.39700
N287        N  0.06925805  0.08888356  0.09668153    -0.37500
N288        N  0.06355559  0.16120829  0.13894654    -0.39900
N289        N  0.99729906  0.18184313  0.08826383    -0.39600
N290        N  0.99786554  0.25125420  0.13179270    -0.37300
N291        N  0.50851329  0.19012991  0.32660323    -0.38300
N292        N  0.50745807  0.12550052  0.27539437    -0.40000
C293        C  0.14648836  0.35018258  0.06633207    -0.04900
C294        C  0.13936790  0.34942196  0.02546007     0.09200
C295        C  0.15078387  0.33083693  0.99945614    -0.02300
C296        C  0.16948617  0.31296508  0.01425321    -0.00600
C297        C  0.17622820  0.31324017  0.05536871    -0.04200
C298        C  0.16476910  0.33190774  0.08142316     0.02800
C299        C  0.11850672  0.36729777  0.01050101     0.09700
C300        C  0.14294164  0.33004603  0.95765156     0.35600
C301        C  0.17191284  0.33246184  0.12350045     0.39000
C302        C  0.12504460  0.39054605  0.99023725    -0.04500
C303        C  0.10509247  0.40841374  0.97940415     0.02600
C304        C  0.07894609  0.40442687  0.99281367    -0.04100
C305        C  0.07245006  0.38013333  0.01134047    -0.00400
C306        C  0.09210089  0.36122031  0.01822171    -0.02900
C307        C  0.15238176  0.39636777  0.98172107     0.36300
C308        C  0.04616274  0.37462283  0.02576490     0.39900
C309        C  0.11153418  0.43052337  0.95393581     0.39100
C310        C  0.08534310  0.33547007  0.03379839     0.36000
C311        C  0.13498340  0.36990011  0.09260964     0.36700
C312        C  0.18215678  0.29454129  0.98710721     0.39900
N313        N  0.11664140  0.44802417  0.93335955    -0.38100
N314        N  0.17424505  0.40098199  0.97530142    -0.39700
N315        N  0.02544684  0.36958949  0.03768126    -0.37500
N316        N  0.08007248  0.31475366  0.04548885    -0.39900
N317        N  0.13644764  0.32963793  0.92440415    -0.39600
N318        N  0.19235589  0.27986855  0.96553986    -0.37300
N319        N  0.17744872  0.33316168  0.15713644    -0.38300
N320        N  0.12572571  0.38575105  0.11323599    -0.40000
C321        C  0.33121193  0.34430098  0.00968132    -0.04900
C322        C  0.34771082  0.35726360  0.03740558     0.09200
C323        C  0.34613288  0.35141928  0.07864764    -0.02300
C324        C  0.32761887  0.33297634  0.09214775    -0.00600
C325        C  0.31184302  0.31928324  0.06421140    -0.04200
C326        C  0.31368434  0.32497896  0.02291814     0.02800
C327        C  0.36618459  0.37777474  0.02327174     0.09700
C328        C  0.36365789  0.36428456  0.10702648     0.35600
C329        C  0.29666471  0.31179932  0.99413445     0.39000
C330        C  0.36093612  0.40444241  0.03160894    -0.04500
C331        C  0.37959417  0.42372830  0.02198520     0.02600
C332        C  0.40360159  0.41626868  0.00317710    -0.04100
C333        C  0.40681296  0.38994178  0.98979668    -0.00400
C334        C  0.38853785  0.37064565  0.00088038    -0.02900
C335        C  0.33612374  0.41200171  0.04987153     0.36300
C336        C  0.42864613  0.38255173  0.96414800     0.39900
C337        C  0.37370073  0.45095601  0.03215590     0.39100
C338        C  0.39273279  0.34340430  0.98918974     0.36000
C339        C  0.33208493  0.35110464  0.96754688     0.36700
C340        C  0.32418239  0.32855725  0.13465508     0.39900
N341        N  0.36858147  0.47257026  0.04013157    -0.38100
N342        N  0.31629172  0.41808889  0.06412101    -0.39700
N343        N  0.44597708  0.37654173  0.94366475    -0.37500
N344        N  0.39587336  0.32175230  0.97935033    -0.39900
N345        N  0.37773028  0.37448460  0.12958070    -0.39600
N346        N  0.32115201  0.32510320  0.16853197    -0.37300
N347        N  0.28285306  0.30172025  0.97109145    -0.38300
N348        N  0.33297502  0.35645325  0.93395479    -0.40000
C349        C  0.35313580  0.16773019  0.02771908    -0.04900
C350        C  0.35721084  0.14736210  0.05553624     0.09200
C351        C  0.34236951  0.14638049  0.09097255    -0.02300
C352        C  0.32339738  0.16585205  0.09876790    -0.00600
C353        C  0.31904384  0.18602735  0.07069913    -0.04200
C354        C  0.33388630  0.18696158  0.03511800     0.02800
C355        C  0.37660177  0.12636457  0.04650892     0.09700
C356        C  0.34612726  0.12485692  0.11862275     0.35600
C357        C  0.32875536  0.20725831  0.00565512     0.39000
C358        C  0.40293227  0.12937079  0.05853465    -0.04500
C359        C  0.42174628  0.11033370  0.04763350     0.02600
C360        C  0.41425252  0.08812724  0.02402473    -0.04100
C361        C  0.38761546  0.08571483  0.01138917    -0.00400
C362        C  0.36877385  0.10427154  0.02397341    -0.02900
C363        C  0.41057070  0.15203444  0.08263182     0.36300
C364        C  0.37958448  0.06521288  0.98347192     0.39900
C365        C  0.44865043  0.11416821  0.06109572     0.41300
C366        C  0.34111714  0.10058425  0.01435748     0.36000
C367        C  0.36828852  0.16844049  0.99102788     0.36700
C368        C  0.30779356  0.16480927  0.13498339     0.39900
N369        N  0.46994804  0.11821102  0.07181557    -0.38100
N370        N  0.41676311  0.16999203  0.10193520    -0.39700
N371        N  0.37298423  0.04918222  0.96082058    -0.37500
N372        N  0.31896338  0.09770366  0.00746940    -0.39900
N373        N  0.34911151  0.10752873  0.14045923    -0.39600
N374        N  0.29519313  0.16401406  0.16371379    -0.37300
N375        N  0.32462657  0.22350496  0.98229272    -0.38300
N376        N  0.38030870  0.16899368  0.96171037    -0.40000
C377        C  0.13375646  0.09349518  0.01490221    -0.04900
C378        C  0.12613167  0.11950032  0.02367462     0.09200
C379        C  0.09961887  0.12703271  0.01991254    -0.02300
C380        C  0.08042577  0.10825459  0.00972120    -0.00600
C381        C  0.08737387  0.08106454  0.00608484    -0.04200
C382        C  0.11458798  0.07417133  0.00679489     0.02800
C383        C  0.14632829  0.13961633  0.03380594     0.09700
C384        C  0.09214658  0.15443973  0.02547945     0.35600
C385        C  0.12349803  0.04769857  0.99730090     0.39000
C386        C  0.15460842  0.15734130  0.00412877    -0.04500
C387        C  0.17258720  0.17734161  0.01389565     0.02600
C388        C  0.18297487  0.17911228  0.05304825    -0.04100
C389        C  0.17562699  0.16067912  0.08230059    -0.00400
C390        C  0.15678923  0.14129209  0.07298333    -0.02900
C391        C  0.14445449  0.15498590  0.96358885     0.36300
C392        C  0.18770376  0.16168888  0.12173133     0.39900
C393        C  0.18048716  0.19608267  0.98368187     0.39100
C394        C  0.14773221  0.12353663  0.10382815     0.36000
C395        C  0.16152893  0.08699666  0.01216564     0.36700
C396        C  0.05382970  0.11764894  0.00202130     0.39900
N397        N  0.18668274  0.21108346  0.95957931    -0.38100
N398        N  0.13625556  0.15300880  0.93133607    -0.39700
N399        N  0.19776141  0.16257600  0.15286920    -0.37500
N400        N  0.14044924  0.10956798  0.12865985    -0.39900
N401        N  0.08606583  0.17626512  0.02940125    -0.39600
N402        N  0.03270192  0.12517242  0.99566826    -0.37300
N403        N  0.13076665  0.02675136  0.98910558    -0.38300
N404        N  0.18363454  0.08187788  0.00915672    -0.40000
C405        C  0.36728811  0.03372863  0.83938834    -0.04900
C406        C  0.34869094  0.01294180  0.84127543     0.09200
C407        C  0.35593209  0.48959198  0.86205282    -0.02300
C408        C  0.38137015  0.48686110  0.87904019    -0.00600
C409        C  0.40022673  0.00740967  0.87627025    -0.04200
C410        C  0.39278199  0.03104044  0.85693198     0.02800
C411        C  0.32227663  0.01442106  0.81935996     0.09700
C412        C  0.33699193  0.46854697  0.86688054     0.35600
C413        C  0.41079020  0.05312603  0.85687912     0.39000
C414        C  0.32153423  0.01342699  0.77738893    -0.04500
C415        C  0.29733354  0.01101261  0.75624035     0.02600
C416        C  0.27210331  0.00953011  0.77647352    -0.04100
C417        C  0.27348868  0.01166650  0.81959974    -0.00400
C418        C  0.29814701  0.01427829  0.84010958    -0.02900
C419        C  0.34629410  0.01312019  0.75565374     0.36300
C420        C  0.25031780  0.51212053  0.84435168     0.39900
C421        C  0.29969559  0.00598891  0.71354109     0.39100
C422        C  0.29878356  0.01682158  0.88345200     0.36000
C423        C  0.35981402  0.05826659  0.82046386     0.36700
C424        C  0.38803282  0.46277596  0.89990761     0.39900
N425        N  0.30339377  0.00101540  0.68018055    -0.38100
N426        N  0.36605119  0.01292632  0.73855849    -0.39700
N427        N  0.23267955  0.51316624  0.86614429    -0.37500
N428        N  0.29884719  0.51881577  0.91798356    -0.39900
N429        N  0.32187364  0.45189814  0.87187877    -0.39600
N430        N  0.39300893  0.44347693  0.91653327    -0.37300
N431        N  0.42496542  0.07092820  0.85688467    -0.38300
N432        N  0.35377405  0.07779941  0.80526225    -0.40000
C433        C  0.11802762  0.48444953  0.81568108    -0.04900
C434        C  0.13743601  0.00326016  0.82711591     0.09200
C435        C  0.13049460  0.02299310  0.85522398    -0.02300
C436        C  0.10521656  0.02328009  0.87282603    -0.00600
C437        C  0.08683927  0.00294429  0.86494063    -0.04200
C438        C  0.09302384  0.48440446  0.83491429     0.02800
C439        C  0.16436074  0.00392085  0.80717195     0.09700
C440        C  0.14932777  0.04340579  0.86565998     0.35600
C441        C  0.07323267  0.46545154  0.82296322     0.39000
C442        C  0.17059368  0.02443725  0.78119784    -0.04500
C443        C  0.19594772  0.02648328  0.76353740     0.02600
C444        C  0.21714554  0.00764921  0.77187219    -0.04100
C445        C  0.20953490  0.48532735  0.79662969    -0.00400
C446        C  0.18403409  0.48391864  0.81445187    -0.02900
C447        C  0.14980728  0.04318479  0.77103705     0.36300
C448        C  0.22745708  0.46412461  0.80664815     0.39900
C449        C  0.19705029  0.04690554  0.73350716     0.39100
C450        C  0.17757263  0.46251530  0.84126745     0.36000
C451        C  0.12321145  0.46608935  0.78331080     0.36700
C452        C  0.09743841  0.04563284  0.89717067     0.39900
N453        N  0.19597922  0.06356498  0.71010504    -0.38100
N454        N  0.13331167  0.05803981  0.76309789    -0.39700
N455        N  0.24031975  0.44668569  0.81735573    -0.37500
N456        N  0.17228188  0.44547339  0.86258687    -0.39900
N457        N  0.16430151  0.05982188  0.87340785    -0.39600
N458        N  0.09117366  0.06403005  0.91533097    -0.37300
N459        N  0.05740027  0.45045740  0.81284473    -0.38300
N460        N  0.12729039  0.45146962  0.75736737    -0.40000
C461        C  0.48117296  0.17542290  0.78686161    -0.04900
C462        C  0.00057716  0.16844821  0.81456459     0.09200
C463        C  0.02156818  0.18579420  0.82110017    -0.02300
C464        C  0.02322444  0.21026669  0.80040467    -0.00600
C465        C  0.00271963  0.21925387  0.77328999    -0.04200
C466        C  0.48279788  0.19923532  0.76486532     0.02800
C467        C  0.99919273  0.14218964  0.83585920     0.09700
C468        C  0.04155492  0.17832562  0.85025762     0.35600
C469        C  0.46542244  0.19964002  0.73039733     0.39000
C470        C  0.01445570  0.12040380  0.82293515    -0.04500
C471        C  0.01336131  0.09598447  0.84347638     0.02600
C472        C  0.99641249  0.09286188  0.87666454    -0.04100
C473        C  0.48023935  0.11446603  0.88812745    -0.00400
C474        C  0.48176912  0.13885113  0.86811937    -0.02900
C475        C  0.03111471  0.12314058  0.78811439     0.36300
C476        C  0.46151108  0.11175499  0.92044620     0.39900
C477        C  0.03058881  0.07459755  0.83147431     0.39100
C478        C  0.46514607  0.16061527  0.88069874     0.36000
C479        C  0.45970992  0.15698473  0.77960904     0.36700
C480        C  0.04709573  0.22493027  0.80809723     0.39900
N481        N  0.04447337  0.05764562  0.82181573    -0.38100
N482        N  0.04424687  0.12539621  0.76014080    -0.39700
N483        N  0.44642031  0.11005254  0.94609117    -0.37500
N484        N  0.45168725  0.17781212  0.89071566    -0.39900
N485        N  0.05728708  0.17223962  0.87362552    -0.39600
N486        N  0.06721288  0.23408319  0.81661816    -0.37300
N487        N  0.45128124  0.19844452  0.70323221    -0.38300
N488        N  0.44265289  0.14235716  0.77390211    -0.40000
C489        C  0.49679474  0.30193136  0.83761837    -0.04900
C490        C  0.99763884  0.32550147  0.81559346     0.09200
C491        C  0.00050532  0.32385937  0.77402784    -0.02300
C492        C  0.00304783  0.29921531  0.75433322    -0.00600
C493        C  0.00242010  0.27436718  0.77569872    -0.04200
C494        C  0.49933532  0.27671546  0.81853830     0.02800
C495        C  0.99626263  0.35247948  0.83556453     0.09700
C496        C  0.00187896  0.34813770  0.75119998     0.35600
C497        C  0.49856811  0.25413923  0.84467881     0.39000
C498        C  0.01942146  0.36523523  0.84900935    -0.04500
C499        C  0.01851290  0.39140836  0.86403168     0.02600
C500        C  0.99444885  0.40544529  0.86622819    -0.04100
C501        C  0.47136202  0.39285762  0.85199577    -0.00400
C502        C  0.47219934  0.36649573  0.83736342    -0.02900
C503        C  0.04423037  0.35115113  0.84927600     0.36300
C504        C  0.44659055  0.40693545  0.85258635     0.39900
C505        C  0.04250968  0.40377376  0.87835774     0.39100
C506        C  0.44806443  0.35324127  0.82582429     0.36000
C507        C  0.49309209  0.30379828  0.88058225     0.36700
C508        C  0.00965369  0.30069399  0.71216574     0.39900
N509        N  0.06174641  0.41355954  0.88954450    -0.38100
N510        N  0.06435251  0.34049060  0.85063848    -0.39700
N511        N  0.42667398  0.41799511  0.85218963    -0.37500
N512        N  0.42881504  0.34244001  0.81715239    -0.39900
N513        N  0.00310922  0.36734019  0.73284183    -0.39600
N514        N  0.01569220  0.30408454  0.67923654    -0.37300
N515        N  0.49726522  0.23713709  0.86752991    -0.38300
N516        N  0.49002025  0.30527772  0.91482184    -0.40000
C517        C  0.45250560  0.25910316  0.65909989    -0.04900
C518        C  0.42838328  0.26064119  0.67978434     0.09200
C519        C  0.42900556  0.25855130  0.72154287    -0.02300
C520        C  0.45298004  0.25426393  0.74262612    -0.00600
C521        C  0.47824464  0.25154687  0.72257264    -0.04200
C522        C  0.47695751  0.25417619  0.67950590     0.02800
C523        C  0.40178570  0.26149174  0.65813573     0.09700
C524        C  0.40414311  0.25931584  0.74302543     0.35600
C525        C  0.49990066  0.25221954  0.65423848     0.39000
C526        C  0.39193295  0.23854060  0.63922583    -0.04500
C527        C  0.36594713  0.23772626  0.62375375     0.02600
C528        C  0.34900423  0.25982075  0.62636062    -0.04100
C529        C  0.35873854  0.28294847  0.64491825    -0.00400
C530        C  0.38494157  0.28385205  0.66049302    -0.02900
C531        C  0.40861362  0.21555687  0.63463538     0.36300
C532        C  0.34197918  0.30603805  0.64686796     0.39900
C533        C  0.35671303  0.21379804  0.60455359     0.39100
C534        C  0.39487041  0.30810733  0.67781013     0.36000
C535        C  0.45208773  0.26300762  0.61607075     0.36700
C536        C  0.44999147  0.24942480  0.78512637     0.39900
N537        N  0.34970909  0.19441338  0.58972099    -0.38100
N538        N  0.42141312  0.19697196  0.62967619    -0.39700
N539        N  0.32842527  0.32435176  0.64843362    -0.37500
N540        N  0.40274016  0.32758963  0.69137376    -0.39900
N541        N  0.38426490  0.25986824  0.75977483    -0.39600
N542        N  0.44527285  0.24512772  0.81830686    -0.37300
N543        N  0.51716805  0.25136925  0.63175811    -0.38300
N544        N  0.45188878  0.26626822  0.58181122    -0.40000
C545        C  0.08007228  0.26287710  0.72050523    -0.04900
C546        C  0.08549158  0.24406252  0.69108312     0.09200
C547        C  0.06589077  0.22558025  0.68140757    -0.02300
C548        C  0.04099937  0.22571096  0.70134435    -0.00600
C549        C  0.03340840  0.24663163  0.72849514    -0.04200
C550        C  0.05521097  0.26404073  0.73960906     0.02800
C551        C  0.11161279  0.24531899  0.66920925     0.09700
C552        C  0.07107606  0.20693953  0.64928675     0.35600
C553        C  0.05527690  0.28114881  0.77449636     0.39000
C554        C  0.13370246  0.23012078  0.68129347    -0.04500
C555        C  0.15859676  0.23338947  0.66241833     0.02600
C556        C  0.16176290  0.25228426  0.63181446    -0.04100
C557        C  0.14010329  0.26882681  0.62238689    -0.00400
C558        C  0.11525280  0.26499286  0.64016994    -0.02900
C559        C  0.13089202  0.21152380  0.71370166     0.36300
C560        C  0.14355577  0.29072070  0.59528124     0.39900
C561        C  0.18080643  0.21722282  0.67426686     0.39100
C562        C  0.09330538  0.28187188  0.62927950     0.36000
C563        C  0.10096245  0.28115549  0.73189253     0.36700
C564        C  0.02392806  0.20354912  0.69294073     0.39900
N565        N  0.19862225  0.20448314  0.68394581    -0.38100
N566        N  0.12867114  0.19679537  0.73976733    -0.39700
N567        N  0.14605349  0.30853539  0.57425337    -0.37500
N568        N  0.07573213  0.29533619  0.62100000    -0.39900
N569        N  0.07514759  0.19243704  0.62318466    -0.39600
N570        N  0.01190164  0.18498120  0.68456713    -0.37300
N571        N  0.05694300  0.29446264  0.80257447    -0.38300
N572        N  0.11752142  0.29564165  0.74097207    -0.40000
C573        C  0.23208515  0.12140802  0.64517246    -0.04900
C574        C  0.25497679  0.11180453  0.66453636     0.09200
C575        C  0.27669398  0.12914039  0.66949216    -0.02300
C576        C  0.27564111  0.15525327  0.65453355    -0.00600
C577        C  0.25324143  0.16422461  0.63352145    -0.04200
C578        C  0.23125013  0.14733353  0.63003907     0.02800
C579        C  0.25479371  0.08487174  0.68423477     0.09700
C580        C  0.30029693  0.12006987  0.68977782     0.35600
C581        C  0.20741374  0.15680880  0.61085748     0.39000
C582        C  0.25331799  0.06126291  0.66184189    -0.04500
C583        C  0.25069251  0.03622066  0.68086359     0.02600
C584        C  0.24892614  0.03405018  0.72389923    -0.04100
C585        C  0.25102482  0.05888118  0.74562230    -0.00400
C586        C  0.25378038  0.08337159  0.72602022    -0.02900
C587        C  0.25369439  0.06289119  0.61841935     0.36300
C588        C  0.24633706  0.06093720  0.78834323     0.39900
C589        C  0.25007152  0.01368611  0.65422327     0.39100
C590        C  0.25297844  0.10778518  0.74915149     0.36000
C591        C  0.20924294  0.10463590  0.64008334     0.36700
C592        C  0.29767510  0.17288924  0.66056463     0.39900
N593        N  0.25108036  0.49683881  0.63062347    -0.38100
N594        N  0.25348164  0.06408939  0.58382973    -0.39700
N595        N  0.24210315  0.06529104  0.82174186    -0.37500
N596        N  0.25211949  0.12717405  0.76746342    -0.39900
N597        N  0.31910814  0.11302017  0.70622766    -0.39600
N598        N  0.31511056  0.18707920  0.66609184    -0.37300
N599        N  0.18818486  0.16431042  0.59615286    -0.38300
N600        N  0.19090254  0.09155796  0.63495040    -0.40000
C601        C  0.22776850  0.38132150  0.66784058    -0.04900
C602        C  0.24567076  0.40193484  0.65944373     0.09200
C603        C  0.26632134  0.39689398  0.63216112    -0.02300
C604        C  0.26942482  0.37169925  0.61445895    -0.00600
C605        C  0.25137985  0.35112805  0.62244111    -0.04200
C606        C  0.23050487  0.35619271  0.64927331     0.02800
C607        C  0.24494592  0.42793826  0.68242111     0.09700
C608        C  0.28450078  0.41783415  0.62211092     0.35600
C609        C  0.21114632  0.33586967  0.65649654     0.39000
C610        C  0.26464013  0.43338694  0.71064115    -0.04500
C611        C  0.26509801  0.45750210  0.73247963     0.02600
C612        C  0.24632571  0.47882342  0.72488041    -0.04100
C613        C  0.22505846  0.47125648  0.69814310    -0.00400
C614        C  0.22489405  0.44668887  0.67696065    -0.02900
C615        C  0.28416055  0.41293737  0.71875634     0.36300
C616        C  0.20262444  0.48820839  0.69070284     0.39900
C617        C  0.28387566  0.45718217  0.76528433     0.39100
C618        C  0.20374626  0.44057349  0.64901054     0.36000
C619        C  0.20621452  0.38604433  0.69519654     0.36700
C620        C  0.29164851  0.36697319  0.58824892     0.39900
N621        N  0.29918075  0.45518955  0.79084357    -0.38100
N622        N  0.29959627  0.39668037  0.72509584    -0.39700
N623        N  0.18388430  0.50004091  0.68253417    -0.37500
N624        N  0.18673942  0.43557317  0.62710438    -0.39900
N625        N  0.29905784  0.43446729  0.61412651    -0.39600
N626        N  0.30960723  0.36358384  0.56768635    -0.37300
N627        N  0.19568127  0.31963140  0.66212184    -0.38300
N628        N  0.18875887  0.38992137  0.71657008    -0.40000
C629        C  0.41356750  0.09531200  0.49953584    -0.04900
C630        C  0.39780725  0.10883405  0.47163408     0.09200
C631        C  0.39859666  0.10210216  0.43059707    -0.02300
C632        C  0.41666290  0.08310347  0.41708875    -0.00600
C633        C  0.43307383  0.07015555  0.44492223    -0.04200
C634        C  0.43045067  0.07527859  0.48633317     0.02800
C635        C  0.38046888  0.13043543  0.48539366     0.09700
C636        C  0.38067528  0.11458160  0.40248842     0.35600
C637        C  0.44513870  0.05990374  0.51535449     0.39000
C638        C  0.38734507  0.15665985  0.47728743    -0.04500
C639        C  0.36935722  0.17700199  0.48526585     0.02600
C640        C  0.34488568  0.17110472  0.50355975    -0.04100
C641        C  0.34017379  0.14516439  0.51733105    -0.00400
C642        C  0.35722835  0.12468384  0.50622574    -0.02900
C643        C  0.41284594  0.16255175  0.46007046     0.36300
C644        C  0.31777199  0.13927308  0.54259478     0.39900
C645        C  0.37609525  0.20355862  0.47318844     0.39100
C646        C  0.35039994  0.09756533  0.51479917     0.36000
C647        C  0.41269424  0.10230768  0.54170999     0.36700
C648        C  0.41783845  0.07629249  0.37489944     0.39900
N649        N  0.38177724  0.22465037  0.46361203    -0.38100
N650        N  0.43324498  0.16722508  0.44663131    -0.39700
N651        N  0.30004177  0.13442829  0.56286473    -0.37500
N652        N  0.34499606  0.07591007  0.52140897    -0.39900
N653        N  0.36628485  0.12439505  0.38010379    -0.39600
N654        N  0.41841216  0.07046796  0.34137063    -0.37300
N655        N  0.45661528  0.04759475  0.53869969    -0.38300
N656        N  0.41199341  0.10785537  0.57533690    -0.40000
C657        C  0.15638832  0.11715866  0.47976336    -0.04900
C658        C  0.13033337  0.12365561  0.48971554     0.09200
C659        C  0.12489347  0.14719334  0.51034543    -0.02300
C660        C  0.14516923  0.16543753  0.51779674    -0.00600
C661        C  0.17087948  0.16081341  0.50262741    -0.04200
C662        C  0.17654666  0.13592060  0.48470817     0.02800
C663        C  0.10853261  0.10606557  0.47654625     0.09700
C664        C  0.09834950  0.15250062  0.52399168     0.35600
C665        C  0.20245843  0.12957746  0.46926505     0.39000
C666        C  0.10065196  0.08499462  0.50084521    -0.04500
C667        C  0.08106152  0.06755364  0.48719809     0.02600
C668        C  0.07013729  0.07049672  0.44846820    -0.04100
C669        C  0.07773044  0.09187657  0.42442728    -0.00400
C670        C  0.09653633  0.10995954  0.43881128    -0.02900
C671        C  0.11279448  0.08137484  0.53981538     0.36300
C672        C  0.06591482  0.09533946  0.38518762     0.39900
C673        C  0.07157530  0.04700490  0.51337076     0.39100
C674        C  0.10329457  0.13280117  0.41514256     0.36000
C675        C  0.16225549  0.09087504  0.46490265     0.36700
C676        C  0.13925628  0.18903358  0.54081277     0.39900
N677        N  0.06379291  0.03076889  0.53435547    -0.38100
N678        N  0.12264737  0.07860186  0.57081439    -0.39700
N679        N  0.05632648  0.09804520  0.35398153    -0.37500
N680        N  0.10844020  0.15117814  0.39645361    -0.39900
N681        N  0.07718916  0.15660189  0.53507618    -0.39600
N682        N  0.13453497  0.20787263  0.55907403    -0.37300
N683        N  0.22284790  0.12385848  0.45654765    -0.38300
N684        N  0.16656764  0.06962331  0.45408008    -0.40000
C685        C  0.09464325  0.41429194  0.48347072    -0.04900
C686        C  0.10685496  0.39857714  0.45395934     0.09200
C687        C  0.10081358  0.40251499  0.41307159    -0.02300
C688        C  0.08272418  0.42226766  0.40181209    -0.00600
C689        C  0.07035275  0.43773794  0.43144108    -0.04200
C690        C  0.07642478  0.43378946  0.47226475     0.02800
C691        C  0.12593018  0.37769206  0.46634283     0.09700
C692        C  0.11295059  0.38599959  0.38275945     0.35600
C693        C  0.06337577  0.44945765  0.50276394     0.39000
C694        C  0.11827298  0.35108470  0.46611959    -0.04500
C695        C  0.13650598  0.33120510  0.47640072     0.02600
C696        C  0.16230782  0.33801615  0.48968581    -0.04100
C697        C  0.16855111  0.36521359  0.49443509    -0.00400
C698        C  0.15102108  0.38473167  0.48073258    -0.02900
C699        C  0.09131586  0.34436003  0.45586765     0.36300
C700        C  0.19246283  0.37355678  0.51484103     0.39900
C701        C  0.12840654  0.30394500  0.47238394     0.39100
C702        C  0.15872698  0.41225167  0.48148825     0.36000
C703        C  0.10056695  0.40996491  0.52545909     0.36700
C704        C  0.07682800  0.42678182  0.35989406     0.39900
N705        N  0.12180430  0.28223949  0.46915457    -0.38100
N706        N  0.06966037  0.33939565  0.44813746    -0.39700
N707        N  0.21135467  0.38033138  0.53140708    -0.37500
N708        N  0.16468132  0.43422787  0.48198029    -0.39900
N709        N  0.12246338  0.37263291  0.35864928    -0.39600
N710        N  0.07221880  0.43051653  0.32643972    -0.37300
N711        N  0.05280619  0.46192509  0.52694656    -0.38300
N712        N  0.10560031  0.40634034  0.55879796    -0.40000
C713        C  0.34919517  0.38294293  0.44416349    -0.04900
C714        C  0.37490834  0.38044039  0.45939475     0.09200
C715        C  0.38115935  0.36016936  0.48638004    -0.02300
C716        C  0.36166791  0.34222951  0.49808865    -0.00600
C717        C  0.33557868  0.34478039  0.48323053    -0.04200
C718        C  0.32923836  0.36613610  0.45760879     0.02800
C719        C  0.39519184  0.40006269  0.44838341     0.09700
C720        C  0.40798521  0.35723276  0.50083647     0.35600
C721        C  0.30242010  0.37117113  0.44458413     0.39000
C722        C  0.40181197  0.42019830  0.47578384    -0.04500
C723        C  0.42094036  0.43887221  0.46565850     0.02600
C724        C  0.43323790  0.43763484  0.42779205    -0.04100
C725        C  0.42633482  0.41765649  0.40020853    -0.00400
C726        C  0.40735593  0.39881605  0.41058275    -0.02900
C727        C  0.38874339  0.42170179  0.51430017     0.36300
C728        C  0.43882875  0.41650233  0.36131515     0.39900
C729        C  0.42800718  0.45932322  0.49426992     0.39100
C730        C  0.39992993  0.37833674  0.38233512     0.36000
C731        C  0.34377706  0.40171075  0.41254817     0.36700
C732        C  0.36859168  0.32143645  0.52590964     0.39900
N733        N  0.43345706  0.47569280  0.51706098    -0.38100
N734        N  0.37826103  0.42271858  0.54495328    -0.39700
N735        N  0.44888196  0.41551749  0.33033454    -0.37500
N736        N  0.39346392  0.36212283  0.35993162    -0.39900
N737        N  0.42941153  0.35485537  0.51216520    -0.39600
N738        N  0.37417874  0.30474923  0.54783170    -0.37300
N739        N  0.28108701  0.37598070  0.43475244    -0.38300
N740        N  0.34004873  0.41600488  0.38627343    -0.40000
C741        C  0.11212622  0.23595509  0.36781606    -0.04900
C742        C  0.10846124  0.25325733  0.33551036     0.09200
C743        C  0.13017059  0.26818888  0.32204720    -0.02300
C744        C  0.15508312  0.26638351  0.34163746    -0.00600
C745        C  0.15869534  0.24913261  0.37440542    -0.04200
C746        C  0.13704608  0.23332204  0.38617357     0.02800
C747        C  0.08269490  0.25234758  0.31255905     0.09700
C748        C  0.12680938  0.28535448  0.28791807     0.35600
C749        C  0.14039894  0.21331404  0.41640072     0.39000
C750        C  0.06292478  0.27134999  0.31776021    -0.04500
C751        C  0.03807599  0.26904101  0.29794893     0.02600
C752        C  0.03131387  0.24635930  0.27359182    -0.04100
C753        C  0.05329598  0.22820134  0.26697632    -0.00400
C754        C  0.07782672  0.23109089  0.28695987    -0.02900
C755        C  0.06811503  0.29335822  0.34450620     0.36300
C756        C  0.05398534  0.20792483  0.23629696     0.39900
C757        C  0.01975757  0.29052794  0.30461994     0.39100
C758        C  0.09911312  0.21226811  0.27998554     0.36000
C759        C  0.09003584  0.22048927  0.38192051     0.36700
C760        C  0.17671244  0.28264355  0.32844705     0.39900
N761        N  0.50644572  0.30837987  0.31213753    -0.38100
N762        N  0.07211166  0.31094337  0.36581367    -0.39700
N763        N  0.05649885  0.19179413  0.21203549    -0.37500
N764        N  0.11594429  0.19736000  0.27419485    -0.39900
N765        N  0.12406402  0.29907303  0.26067103    -0.39600
N766        N  0.19394898  0.29560998  0.31765436    -0.37300
N767        N  0.14252441  0.19697544  0.44008658    -0.38300
N768        N  0.07234724  0.20826069  0.39300997    -0.40000
C769        C  0.39033902  0.26757220  0.35550980    -0.04900
C770        C  0.39931797  0.24326550  0.33966859     0.09200
C771        C  0.38222387  0.22126679  0.34169474    -0.02300
C772        C  0.35675565  0.22357300  0.35907619    -0.00600
C773        C  0.34777663  0.24795458  0.37467083    -0.04200
C774        C  0.36501816  0.26981986  0.37295035     0.02800
C775        C  0.42600031  0.24127544  0.31881464     0.09700
C776        C  0.39117596  0.19600402  0.32656076     0.35600
C777        C  0.35699180  0.29485587  0.39006348     0.39000
C778        C  0.44995446  0.24332155  0.34013448    -0.04500
C779        C  0.47485540  0.24359012  0.32012183     0.02600
C780        C  0.47660167  0.24277726  0.27684992    -0.04100
C781        C  0.45153051  0.23925066  0.25635718    -0.00400
C782        C  0.42714559  0.23844144  0.27705826    -0.02900
C783        C  0.44885924  0.24510467  0.38353287     0.36300
C784        C  0.44927081  0.24068784  0.21310413     0.39900
C785        C  0.49771875  0.24381022  0.34612974     0.39100
C786        C  0.40256646  0.23687328  0.25461114     0.36000
C787        C  0.40729258  0.29046035  0.35481721     0.36700
C788        C  0.34029713  0.20046857  0.36255877     0.39900
N789        N  0.01494693  0.24353070  0.36896612    -0.38100
N790        N  0.44803235  0.24668416  0.41808079    -0.39700
N791        N  0.44515072  0.24249671  0.17913011    -0.37500
N792        N  0.38306988  0.23570070  0.23664243    -0.39900
N793        N  0.39845319  0.17596376  0.31417601    -0.39600
N794        N  0.32729758  0.18189783  0.36520640    -0.37300
N795        N  0.35104756  0.31502854  0.40348875    -0.38300
N796        N  0.42055808  0.30893953  0.35526516    -0.40000
C797        C  0.22280398  0.38445210  0.35330283    -0.04900
C798        C  0.24544874  0.39470307  0.33417311     0.09200
C799        C  0.26771670  0.37789152  0.33028840    -0.02300
C800        C  0.26744071  0.35183824  0.34579152    -0.00600
C801        C  0.24521505  0.34215648  0.36613891    -0.04200
C802        C  0.22254407  0.35833525  0.36818025     0.02800
C803        C  0.24500976  0.42247971  0.31660881     0.09700
C804        C  0.29156330  0.38738849  0.31181376     0.35600
C805        C  0.19863964  0.34784689  0.38539793     0.39000
C806        C  0.26065582  0.44327657  0.33208942    -0.04500
C807        C  0.26145003  0.46841026  0.31264377     0.02600
C808        C  0.24395630  0.47448615  0.27994503    -0.04100
C809        C  0.22338393  0.45535288  0.27447527    -0.00400
C810        C  0.22686851  0.42893528  0.28626459    -0.02900
C811        C  0.27519251  0.43909702  0.36887318     0.36300
C812        C  0.19618995  0.46285868  0.26825712     0.39900
C813        C  0.28013942  0.48761687  0.32740296     0.39100
C814        C  0.21077565  0.40863460  0.26770527     0.36000
C815        C  0.19999680  0.40121618  0.35948337     0.36700
C816        C  0.29046670  0.33519430  0.34171154     0.39900
N817        N  0.29508065  0.50250478  0.34063660    -0.38100
N818        N  0.28616614  0.43601847  0.39890281    -0.39700
N819        N  0.17403111  0.46763419  0.26467434    -0.37500
N820        N  0.19799196  0.39255096  0.25257292    -0.39900
N821        N  0.31116748  0.39422854  0.29782690    -0.39600
N822        N  0.30886071  0.32200053  0.33773629    -0.37300
N823        N  0.17940042  0.33930642  0.39831608    -0.38300
N824        N  0.18182776  0.41461398  0.36437395    -0.40000
C825        C  0.27109189  0.10976113  0.36665389    -0.04900
C826        C  0.25290958  0.10542710  0.33518450     0.09200
C827        C  0.23540585  0.12623660  0.32515305    -0.02300
C828        C  0.23601103  0.15071745  0.34642046    -0.00600
C829        C  0.25475983  0.15525787  0.37725489    -0.04200
C830        C  0.27251606  0.13446863  0.38650501     0.02800
C831        C  0.25207300  0.07860957  0.31398649     0.09700
C832        C  0.21609863  0.12226668  0.29369509     0.35600
C833        C  0.29287126  0.13838566  0.41632201     0.39000
C834        C  0.23202290  0.06033954  0.32205934    -0.04500
C835        C  0.23204642  0.03455473  0.30452174     0.02600
C836        C  0.25219294  0.02603866  0.27698197    -0.04100
C837        C  0.27435852  0.04385483  0.27464408    -0.00400
C838        C  0.27317724  0.07007750  0.29006015    -0.02900
C839        C  0.21091522  0.06849682  0.34850840     0.36300
C840        C  0.30054727  0.03527119  0.26395660     0.39900
C841        C  0.21081351  0.01736482  0.31600273     0.39100
C842        C  0.29459164  0.08831066  0.28230755     0.36000
C843        C  0.28779402  0.08824117  0.37990299     0.36700
C844        C  0.21622646  0.17055977  0.33808116     0.39900
N845        N  0.19343568  0.00504119  0.32786631    -0.38100
N846        N  0.19418293  0.07556253  0.36935898    -0.39700
N847        N  0.32235753  0.03019196  0.25779730    -0.37500
N848        N  0.31179898  0.10258744  0.27609546    -0.39900
N849        N  0.20037575  0.11934740  0.26890313    -0.39600
N850        N  0.20021301  0.18620799  0.33150612    -0.37300
N851        N  0.30946286  0.14115186  0.43970113    -0.38300
N852        N  0.30093854  0.07100634  0.39061394    -0.40000
O853        O  0.25274031  0.70343338  0.38753833    -0.79600
O854        O  0.25468471  0.71133563  0.61934890    -0.81100
O855        O  0.29928240  0.68236621  0.50310154    -0.78200
O856        O  0.21473917  0.67606512  0.50563559    -0.76500
O857        O  0.18205364  0.70656726  0.50314902    -0.78300
O858        O  0.32933379  0.71531869  0.50524800    -0.79300
O859        O  0.25465010  0.68058855  0.56868483    -0.80600
O860        O  0.25488635  0.67573263  0.44123629    -0.80900
Eu861      Eu  0.25532677  0.70144226  0.50368607     2.39200
O862        O  0.22900750  0.72770515  0.54570260    -0.88400
O863        O  0.28019351  0.72717534  0.46000187    -0.92000
C864        C  0.25398017  0.67992812  0.40318880     1.02700
C865        C  0.25426275  0.68719383  0.60585705     1.02500
C866        C  0.32309057  0.69088556  0.50429440     1.02500
C867        C  0.19028850  0.68252067  0.50427336     1.00300
H868        H  0.29243976  0.71949160  0.56094720     0.30100
O869        O  0.28077573  0.72963102  0.54479648    -1.00800
H870        H  0.21639702  0.71293698  0.44564292     0.30100
O871        O  0.22741864  0.72501888  0.46074189    -1.03300
O872        O  0.25254578  0.80343882  0.61356769    -0.80500
O873        O  0.24939725  0.79540602  0.38221167    -0.80100
O874        O  0.32924345  0.76030581  0.56295408    -0.78500
O875        O  0.17924736  0.75095283  0.56794424    -0.81900
O876        O  0.17741492  0.75110410  0.43975887    -0.79700
O877        O  0.32891710  0.75215313  0.43838559    -0.78400
O878        O  0.29196655  0.82970656  0.49375427    -0.79900
O879        O  0.20695847  0.82494997  0.49454983    -0.81800
O880        O  0.32471612  0.79921066  0.49247845    -0.78500
O881        O  0.17646191  0.79283378  0.50103453    -0.81200
O882        O  0.30080565  0.75913020  0.61600333    -0.77000
O883        O  0.29927095  0.74854341  0.38663137    -0.77000
O884        O  0.20594286  0.74973559  0.38681597    -0.76600
O885        O  0.20922664  0.75433613  0.61923153    -0.80100
O886        O  0.25126586  0.83110514  0.55955959    -0.79600
O887        O  0.24675386  0.82623356  0.43254172    -0.77900
Eu888      Eu  0.25429726  0.75640430  0.58722425     2.39800
Eu889      Eu  0.25248863  0.75040941  0.41509137     2.39600
Eu890      Eu  0.30485400  0.75607990  0.50057204     2.38400
Eu891      Eu  0.20101469  0.75114832  0.50305093     2.39900
Eu892      Eu  0.25073033  0.80543428  0.49782394     2.39800
O893        O  0.22594122  0.77631042  0.45857097    -0.92300
O894        O  0.27865836  0.78261104  0.54189231    -0.91200
C895        C  0.25185597  0.82681025  0.59747813     1.02900
C896        C  0.24695116  0.81956599  0.39531679     1.01600
C897        C  0.32438147  0.76030611  0.60065928     1.01000
C898        C  0.18525355  0.75244225  0.60539224     1.03000
C899        C  0.18230892  0.75019890  0.40202253     1.01900
C900        C  0.32326461  0.74951990  0.40106122     1.00800
C901        C  0.31632752  0.82306841  0.49099953     1.00800
C902        C  0.18295808  0.81714935  0.49667921     1.03400
H903        H  0.28814072  0.79050141  0.43897470     0.30800
O904        O  0.27764035  0.77946601  0.45611184    -1.04500
H905        H  0.21469812  0.79127316  0.55817862     0.32900
O906        O  0.22616488  0.78007399  0.54296285    -1.07000
N907        N  0.00207367  0.96395044  0.41448455    -0.36100
N908        N  0.04157947  0.50481567  0.42197282    -0.56600
N909        N  0.00103990  0.54543660  0.42445128    -0.36100
N910        N  0.46127955  0.50461355  0.41722549    -0.56600
C911        C  0.02348257  0.94902232  0.42278281     0.27500
C912        C  0.48068107  0.94902074  0.42218955     0.27500
C913        C  0.02206824  0.55955600  0.43712342     0.27500
C914        C  0.47930889  0.55954715  0.43384678     0.27500
C915        C  0.05801098  0.98365746  0.41724505     0.36100
C916        C  0.05721883  0.52623495  0.42392545     0.36100
C917        C  0.44597291  0.98348868  0.41452909     0.36100
C918        C  0.44512479  0.52570684  0.41775339     0.36100
C919        C  0.01558270  0.92396825  0.43373393    -0.21300
C920        C  0.48863296  0.92400995  0.43357617    -0.21300
C921        C  0.01366174  0.58341764  0.45289624    -0.21300
C922        C  0.48677031  0.58355469  0.45041777    -0.21300
C923        C  0.08394455  0.99170273  0.41387092    -0.22400
C924        C  0.08333833  0.51894760  0.41929141    -0.22400
C925        C  0.41989781  0.99130825  0.41133885    -0.22400
C926        C  0.41925035  0.51785992  0.41193828    -0.22400
C927        C  0.05002902  0.95729241  0.42166617    -0.17700
C928        C  0.45410777  0.95722394  0.42000786    -0.17700
C929        C  0.45284894  0.55130772  0.42907123    -0.17700
C930        C  0.04872677  0.55169852  0.43510331    -0.17700
H931        H  0.02792622  0.90745020  0.44194171     0.15200
H932        H  0.47634041  0.90753572  0.44171357     0.15200
H933        H  0.02560620  0.59907281  0.46540571     0.15200
H934        H  0.47419984  0.59942970  0.46059265     0.15200
H935        H  0.10122666  0.97938061  0.41075369     0.13500
H936        H  0.10048145  0.53153710  0.42072120     0.13400
H937        H  0.40269614  0.97887597  0.40864925     0.13500
H938        H  0.40167935  0.52990514  0.41269062     0.13400
H939        H  0.00209884  0.98270293  0.40234614     0.26700
H940        H  0.00154142  0.52788518  0.40848573     0.26700
O941        O  0.99318820  0.95289354  0.88108047    -0.79600
O942        O  0.00078740  0.94689068  0.11193568    -0.81100
O943        O  0.03521601  0.92053416  0.98932585    -0.78200
O944        O  0.44997304  0.92622337  0.99983073    -0.76500
O945        O  0.42037561  0.95967070  0.99820171    -0.78300
O946        O  0.06840761  0.95035881  0.99316803    -0.79300
O947        O  0.99732305  0.91934850  0.05770762    -0.80600
O948        O  0.99222902  0.92236368  0.93148672    -0.80900
Eu949      Eu  0.99420496  0.94480985  0.99571631     2.39200
O950        O  0.47049813  0.97090722  0.04102947    -0.88400
O951        O  0.02059096  0.97033354  0.95314822    -0.92000
C952        C  0.99263297  0.92870149  0.89431133     1.02700
C953        C  0.99963662  0.92346789  0.09569756     1.02500
C954        C  0.05972397  0.92657371  0.99097826     1.02500
C955        C  0.42623836  0.93517949  0.99956154     1.00300
H956        H  0.03461255  0.95613781  0.05194700     0.30100
O957        O  0.02321281  0.96819546  0.03775430    -1.00800
H958        H  0.45602299  0.96284108  0.94016775     0.30100
O959        O  0.46819776  0.97298670  0.95605571    -1.03300
O960        O  0.00205345  0.53821434  0.11906124    -0.80500
O961        O  0.99584262  0.54546391  0.88677724    -0.80100
O962        O  0.07308407  0.99496996  0.05788527    -0.78500
O963        O  0.42237241  0.99708812  0.06495381    -0.81900
O964        O  0.42009074  0.50512097  0.93996613    -0.79700
O965        O  0.07070527  0.49743050  0.93075601    -0.78400
O966        O  0.04221739  0.56821480  0.00612300    -0.79900
O967        O  0.45790214  0.57297547  0.01125755    -0.81800
O968        O  0.07275655  0.53610739  0.00051612    -0.78500
O969        O  0.42492267  0.54301104  0.01265809    -0.81200
O970        O  0.04666577  0.99281562  0.11247321    -0.77000
O971        O  0.03993040  0.49990137  0.88044283    -0.77000
O972        O  0.44795671  0.50391883  0.88614385    -0.76600
O973        O  0.45302429  0.99346876  0.11540341    -0.80100
O974        O  0.00368241  0.56919971  0.06941994    -0.79600
O975        O  0.99845765  0.57330162  0.94094018    -0.77900
Eu976      Eu  0.99941046  0.99372591  0.08525456     2.39800
Eu977      Eu  0.99465072  0.49894677  0.91310883     2.39600
Eu978      Eu  0.04872330  0.49433252  0.99552858     2.38400
Eu979      Eu  0.44500145  0.49992278  0.00182590     2.39900
Eu980      Eu  0.99898077  0.54854078  0.00347545     2.39800
O981        O  0.47085139  0.52567281  0.95959470    -0.92300
O982        O  0.02466039  0.51957107  0.04143364    -0.91200
C983        C  0.00388504  0.56240121  0.10653613     1.02900
C984        C  0.99699650  0.56885687  0.90294953     1.01600
C985        C  0.06993636  0.99360695  0.09591537     1.01000
C986        C  0.42877736  0.99490566  0.10201535     1.03000
C987        C  0.42460144  0.50570446  0.90212850     1.01900
C988        C  0.06420612  0.49959796  0.89356740     1.00800
C989        C  0.06620770  0.56048859  0.00450186     1.00800
C990        C  0.43354140  0.56674213  0.01518132     1.03400
H991        H  0.03408840  0.53436250  0.94190929     0.30800
O992        O  0.02275916  0.52292026  0.95723160    -1.04500
H993        H  0.46299061  0.53374512  0.06356344     0.32900
O994        O  0.47315403  0.52263064  0.04573897    -1.07000
N995        N  0.24940184  0.70958697  0.07617447    -0.36100
N996        N  0.28732343  0.75205377  0.08261963    -0.56600
N997        N  0.24491114  0.79074744  0.08150662    -0.36100
N998        N  0.20711337  0.74795332  0.07324789    -0.56600
C999        C  0.27196656  0.69630263  0.06913877     0.27500
C1000       C  0.22948881  0.69415990  0.06301820     0.27500
C1001       C  0.26570326  0.80665947  0.07462929     0.27500
C1002       C  0.22300498  0.80462744  0.07214776     0.27500
C1003       C  0.30408728  0.73163183  0.08661665     0.36100
C1004       C  0.30201552  0.77406200  0.08501976     0.36100
C1005       C  0.19246193  0.72583935  0.07202448     0.36100
C1006       C  0.19003085  0.76826675  0.07541978     0.36100
C1007       C  0.26627221  0.67191952  0.05227589    -0.21300
C1008       C  0.23945784  0.67056804  0.04845325    -0.21300
C1009       C  0.25676727  0.83139537  0.06349595    -0.21300
C1010       C  0.22990551  0.83007905  0.06173472    -0.21300
C1011       C  0.32950979  0.74068802  0.09282713    -0.22400
C1012       C  0.32826631  0.76758605  0.09110249    -0.22400
C1013       C  0.16592830  0.73209780  0.07384721    -0.22400
C1014       C  0.16438805  0.75901465  0.07589643    -0.22400
C1015       C  0.29763602  0.70527272  0.07785934    -0.17700
C1016       C  0.20246285  0.70037873  0.06456890    -0.17700
C1017       C  0.19694107  0.79495987  0.07104122    -0.17700
C1018       C  0.29261699  0.79955943  0.07656390    -0.17700
H1019       H  0.28000471  0.65668524  0.04334871     0.15200
H1020       H  0.22856844  0.65410029  0.03611798     0.15200
H1021       H  0.26839562  0.84853713  0.05630100     0.15200
H1022       H  0.21700086  0.84597501  0.05272842     0.15200
H1023       H  0.34733820  0.72911449  0.09553298     0.13500
H1024       H  0.34496566  0.78072724  0.09263665     0.13400
H1025       H  0.14938681  0.71873859  0.07218039     0.13500
H1026       H  0.14643384  0.77052452  0.07606171     0.13400
H1027       H  0.24760921  0.72700599  0.09231232     0.26700
H1028       H  0.24552282  0.77186916  0.09302800     0.26700
C1029       C  0.00294682  0.74434649  0.25091717    -0.01900
C1030       C  0.24846989  0.49910128  0.24985973    -0.01900
C1031       C  0.00443910  0.74757559  0.75039313    -0.01900
C1032       C  0.24566294  0.00727070  0.74937697    -0.01900
C1033       C  0.19132309  0.97756158  0.17788402    -0.04900
C1034       C  0.17273078  0.99813257  0.18187778     0.09200
C1035       C  0.18053087  0.52198716  0.20075147    -0.02300
C1036       C  0.20613831  0.52390961  0.21794027    -0.00600
C1037       C  0.22407431  0.00140111  0.22030292    -0.04200
C1038       C  0.21721223  0.98000477  0.19389081     0.02800
C1039       C  0.14592171  0.99642076  0.16125282     0.09700
C1040       C  0.16310954  0.54469573  0.20094817     0.35600
C1041       C  0.23589912  0.95951660  0.18361954     0.39000
C1042       C  0.12127621  0.49795483  0.18314417    -0.04500
C1043       C  0.09643214  0.49712460  0.16288631     0.02600
C1044       C  0.09573093  0.99304390  0.12015245    -0.04100
C1045       C  0.12028802  0.98913345  0.09987664    -0.00400
C1046       C  0.14462587  0.99341191  0.11938399    -0.02900
C1047       C  0.12225550  0.49960510  0.22645589     0.36300
C1048       C  0.12145006  0.97858049  0.05946851     0.39900
C1049       C  0.07259205  0.50051187  0.18591153     0.39100
C1050       C  0.16859115  0.99474901  0.09582619     0.36000
C1051       C  0.18307707  0.95273230  0.16006169     0.36700
C1052       C  0.21571541  0.55040798  0.22458017     0.39900
N1053       N  0.05373407  0.50327119  0.20478101    -0.38100
N1054       N  0.12318439  0.50089578  0.26103542    -0.39700
N1055       N  0.12293371  0.96977811  0.02755232    -0.37500
N1056       N  0.18762902  0.99578897  0.07702235    -0.39900
N1057       N  0.14913136  0.56270872  0.20127804    -0.39600
N1058       N  0.22309634  0.57185285  0.22765296    -0.37300
N1059       N  0.24987898  0.94285412  0.17319585    -0.38300
N1060       N  0.17633529  0.93290469  0.14624556    -0.40000
C1061       C  0.36762429  0.51708663  0.16165478    -0.04900
C1062       C  0.35439472  0.99347355  0.16719254     0.09200
C1063       C  0.36613315  0.96994582  0.15239682    -0.02300
C1064       C  0.39176956  0.97016369  0.13537180    -0.00600
C1065       C  0.40549049  0.99408714  0.12977440    -0.04200
C1066       C  0.39205366  0.51770646  0.14114064     0.02800
C1067       C  0.32673582  0.99338214  0.18547195     0.09700
C1068       C  0.35121083  0.94563670  0.15238484     0.35600
C1069       C  0.40217067  0.54277255  0.12764059     0.39000
C1070       C  0.30589900  0.00849161  0.16906777    -0.04500
C1071       C  0.28093114  0.01026760  0.18856036     0.02600
C1072       C  0.27477756  0.99436894  0.22295609    -0.04100
C1073       C  0.29354326  0.47433658  0.23087524    -0.00400
C1074       C  0.31982639  0.47683596  0.21764130    -0.02900
C1075       C  0.31023311  0.02286180  0.13220008     0.36300
C1076       C  0.28598504  0.44765091  0.23950249     0.39900
C1077       C  0.26192542  0.02792780  0.17069175     0.39100
C1078       C  0.34042076  0.46280706  0.23891761     0.36000
C1079       C  0.35637132  0.54146328  0.17651639     0.36700
C1080       C  0.40318546  0.94586743  0.12047228     0.39900
N1081       N  0.24790342  0.04188993  0.15348756    -0.38100
N1082       N  0.31362611  0.03468036  0.10316747    -0.39700
N1083       N  0.28052332  0.42573297  0.24321976    -0.37500
N1084       N  0.35677131  0.45173737  0.25626713    -0.39900
N1085       N  0.33918853  0.92631548  0.15256929    -0.39600
N1086       N  0.41223000  0.92652465  0.10828386    -0.37300
N1087       N  0.40958702  0.56285412  0.11610254    -0.38300
N1088       N  0.34694376  0.56077350  0.18814308    -0.40000
C1089       C  0.02590300  0.80397177  0.17977195    -0.04900
C1090       C  0.00602716  0.82296930  0.18405133     0.09200
C1091       C  0.48546361  0.81765644  0.21030135    -0.02300
C1092       C  0.48344854  0.79307513  0.23036905    -0.00600
C1093       C  0.00262102  0.77178145  0.22503273    -0.04200
C1094       C  0.02467874  0.77919191  0.19994193     0.02800
C1095       C  0.00580167  0.84867712  0.16060758     0.09700
C1096       C  0.46676619  0.83888434  0.21846591     0.35600
C1097       C  0.04687627  0.76189217  0.19280923     0.39000
C1098       C  0.48629354  0.85277105  0.13102049    -0.04500
C1099       C  0.48333329  0.87759682  0.11243650     0.02600
C1100       C  0.00078795  0.89874850  0.12107475    -0.04100
C1101       C  0.02074757  0.89445248  0.15022607    -0.00400
C1102       C  0.02269291  0.86990408  0.17062039    -0.02900
C1103       C  0.46881278  0.83129234  0.12000606     0.36300
C1104       C  0.04013645  0.91470248  0.15810972     0.39900
C1105       C  0.46163804  0.88129119  0.08479008     0.39100
C1106       C  0.04176520  0.86659676  0.20259802     0.36000
C1107       C  0.04828844  0.81037715  0.15480918     0.36700
C1108       C  0.46223213  0.79297748  0.25897473     0.39900
N1109       N  0.44411646  0.88378741  0.06296222    -0.38100
N1110       N  0.45484720  0.81418800  0.11137227    -0.39700
N1111       N  0.05594577  0.93057135  0.16445854    -0.37500
N1112       N  0.05686994  0.86382223  0.22827868    -0.39900
N1113       N  0.45214082  0.85583324  0.22510337    -0.39600
N1114       N  0.44478817  0.79520380  0.28081152    -0.37300
N1115       N  0.06550032  0.75001367  0.18425037    -0.38300
N1116       N  0.06632875  0.81570684  0.13550710    -0.40000
C1117       C  0.50154007  0.66700831  0.23147421    -0.04900
C1118       C  0.00099343  0.66411176  0.18969711     0.09200
C1119       C  0.00007915  0.68716485  0.16625876    -0.02300
C1120       C  0.00054948  0.71291931  0.18405420    -0.00600
C1121       C  0.00151248  0.71653369  0.22698685    -0.04200
C1122       C  0.50112158  0.69228484  0.24991761     0.02800
C1123       C  0.00263082  0.63666073  0.17080248     0.09700
C1124       C  0.99894539  0.68420226  0.12300736     0.35600
C1125       C  0.50436048  0.69205389  0.29307649     0.39000
C1126       C  0.48249885  0.61770597  0.17695053    -0.04500
C1127       C  0.48458420  0.59192991  0.16042692     0.02600
C1128       C  0.00588582  0.58508598  0.13553361    -0.04100
C1129       C  0.02687126  0.60311942  0.13204284    -0.00400
C1130       C  0.02535674  0.62860020  0.14944330    -0.02900
C1131       C  0.45943353  0.62469636  0.20010762     0.36300
C1132       C  0.05089531  0.59469693  0.11256036     0.39900
C1133       C  0.46535088  0.57206635  0.17021670     0.39100
C1134       C  0.04748556  0.64631104  0.14521466     0.36000
C1135       C  0.50470304  0.64355520  0.25596583     0.36700
C1136       C  0.99958469  0.73477735  0.15649784     0.39900
N1137       N  0.45065370  0.55582229  0.17924380    -0.38100
N1138       N  0.44117749  0.63015426  0.21902656    -0.39700
N1139       N  0.07042620  0.58779491  0.09826227    -0.37500
N1140       N  0.06542381  0.65999157  0.14096844    -0.39900
N1141       N  0.99829827  0.68167906  0.08856301    -0.39600
N1142       N  0.99841991  0.75125854  0.13273519    -0.37300
N1143       N  0.50770402  0.68912229  0.32704984    -0.38300
N1144       N  0.50725078  0.62495957  0.27547616    -0.40000
C1145       C  0.14632151  0.85017754  0.06762764    -0.04900
C1146       C  0.13958425  0.84980234  0.02659658     0.09200
C1147       C  0.15101366  0.83124364  0.00056475    -0.02300
C1148       C  0.16936649  0.81303920  0.01546308    -0.00600
C1149       C  0.17614678  0.81327464  0.05657170    -0.04200
C1150       C  0.16453609  0.83180973  0.08271174     0.02800
C1151       C  0.11879606  0.86776003  0.01155259     0.09700
C1152       C  0.14346972  0.83077589  0.95862316     0.35600
C1153       C  0.17119194  0.83194113  0.12496556     0.39000
C1154       C  0.12541144  0.89096453  0.99119836    -0.04500
C1155       C  0.10550500  0.90881241  0.98010054     0.02600
C1156       C  0.07925992  0.90472455  0.99297262    -0.04100
C1157       C  0.07266162  0.88041754  0.01135622    -0.00400
C1158       C  0.09234155  0.86165936  0.01894686    -0.02900
C1159       C  0.15276037  0.89675172  0.98272281     0.36300
C1160       C  0.04616494  0.87469766  0.02473959     0.39900
C1161       C  0.11210187  0.93105132  0.95496545     0.39100
C1162       C  0.08554278  0.83604094  0.03495744     0.36000
C1163       C  0.13433561  0.86948268  0.09412029     0.36700
C1164       C  0.18134170  0.79403493  0.98851498     0.39900
N1165       N  0.11731094  0.94871432  0.93476837    -0.38100
N1166       N  0.17460165  0.90139855  0.97619023    -0.39700
N1167       N  0.02525084  0.86954683  0.03572988    -0.37500
N1168       N  0.08022585  0.81544952  0.04708533    -0.39900
N1169       N  0.13722274  0.83067858  0.92526501    -0.39600
N1170       N  0.19083610  0.77877491  0.96714002    -0.37300
N1171       N  0.17621897  0.83229749  0.15879209    -0.38300
N1172       N  0.12460472  0.88496895  0.11487989    -0.40000
C1173       C  0.33230982  0.84387201  0.00876411    -0.04900
C1174       C  0.34871268  0.85676657  0.03667825     0.09200
C1175       C  0.34654867  0.85131496  0.07799172    -0.02300
C1176       C  0.32782404  0.83302225  0.09126963    -0.00600
C1177       C  0.31213127  0.81938361  0.06316127    -0.04200
C1178       C  0.31431506  0.82494464  0.02186758     0.02800
C1179       C  0.36719668  0.87729167  0.02269508     0.09700
C1180       C  0.36337824  0.86472508  0.10677003     0.35600
C1181       C  0.29713066  0.81215823  0.99292097     0.39000
C1182       C  0.36155444  0.90395202  0.03041514    -0.04500
C1183       C  0.38000743  0.92338447  0.02069328     0.02600
C1184       C  0.40425237  0.91605235  0.00252663    -0.04100
C1185       C  0.40788063  0.88967140  0.98959731    -0.00400
C1186       C  0.38971196  0.87025975  0.00059337    -0.02900
C1187       C  0.33649049  0.91134239  0.04802437     0.36300
C1188       C  0.43011894  0.88230423  0.96471144     0.39900
C1189       C  0.37368474  0.95062002  0.03019625     0.39100
C1190       C  0.39410110  0.84306133  0.98883034     0.36000
C1191       C  0.33357271  0.85057434  0.96660924     0.36700
C1192       C  0.32407051  0.82869029  0.13374250     0.39900
N1193       N  0.36826606  0.97223716  0.03767315    -0.38100
N1194       N  0.31643963  0.91722570  0.06174632    -0.39700
N1195       N  0.44782255  0.87632731  0.94494980    -0.37500
N1196       N  0.39744432  0.82148864  0.97873806    -0.39900
N1197       N  0.37673808  0.87543863  0.12977582    -0.39600
N1198       N  0.32079393  0.82524528  0.16756644    -0.37300
N1199       N  0.28319215  0.80250154  0.96963908    -0.38300
N1200       N  0.33478712  0.85591594  0.93304035    -0.40000
C1201       C  0.35303198  0.66752970  0.02835523    -0.04900
C1202       C  0.35767767  0.64764879  0.05678639     0.09200
C1203       C  0.34339925  0.64717796  0.09280202    -0.02300
C1204       C  0.32429088  0.66656051  0.10040831    -0.00600
C1205       C  0.31949284  0.68631615  0.07183814    -0.04200
C1206       C  0.33393521  0.68689007  0.03587463     0.02800
C1207       C  0.37697163  0.62655254  0.04773573     0.09700
C1208       C  0.34794358  0.62632019  0.12134639     0.35600
C1209       C  0.32856423  0.70701345  0.00623829     0.39000
C1210       C  0.40358551  0.62996733  0.05790661    -0.04500
C1211       C  0.42217454  0.61065392  0.04721199     0.02600
C1212       C  0.41425629  0.58804806  0.02480634    -0.04100
C1213       C  0.38734973  0.58535424  0.01368537    -0.00400
C1214       C  0.36871083  0.60395096  0.02680898    -0.02900
C1215       C  0.41177842  0.65342127  0.07968569     0.36300
C1216       C  0.37877435  0.56456375  0.98665032     0.39900
C1217       C  0.44927004  0.61455378  0.05977053     0.41300
C1218       C  0.34084166  0.59986411  0.01926091     0.36000
C1219       C  0.36734487  0.66753582  0.99086934     0.36700
C1220       C  0.30904958  0.66590728  0.13700257     0.39900
N1221       N  0.47074079  0.61846761  0.06979085    -0.38100
N1222       N  0.41841289  0.67207767  0.09699535    -0.39700
N1223       N  0.37175163  0.54832905  0.96463806    -0.37500
N1224       N  0.31852991  0.59671412  0.01408967    -0.39900
N1225       N  0.35162695  0.60957947  0.14398760    -0.39600
N1226       N  0.29671569  0.66545931  0.16602188    -0.37300
N1227       N  0.32421861  0.72319891  0.98286771    -0.38300
N1228       N  0.37864144  0.66748994  0.96087267    -0.40000
C1229       C  0.13375142  0.59365995  0.01706862    -0.04900
C1230       C  0.12622820  0.61977584  0.02513543     0.09200
C1231       C  0.09971418  0.62729081  0.02148729    -0.02300
C1232       C  0.08044263  0.60844708  0.01173051    -0.00600
C1233       C  0.08731330  0.58118415  0.00841717    -0.04200
C1234       C  0.11452387  0.57424246  0.00977967     0.02800
C1235       C  0.14651482  0.63987212  0.03516706     0.09700
C1236       C  0.09234040  0.65475220  0.02674276     0.35600
C1237       C  0.12341855  0.54754947  0.00194069     0.39000
C1238       C  0.15518847  0.65729935  0.00533816    -0.04500
C1239       C  0.17327416  0.67722781  0.01508951     0.02600
C1240       C  0.18342506  0.67917422  0.05436287    -0.04100
C1241       C  0.17588301  0.66086189  0.08368089    -0.00400
C1242       C  0.15688891  0.64161302  0.07438952    -0.02900
C1243       C  0.14554868  0.65454959  0.96458444     0.36300
C1244       C  0.18804443  0.66170290  0.12305492     0.39900
C1245       C  0.18167889  0.69563216  0.98471031     0.39100
C1246       C  0.14769670  0.62391398  0.10521320     0.36000
C1247       C  0.16151186  0.58716156  0.01407572     0.36700
C1248       C  0.05384217  0.61787956  0.00423099     0.39900
N1249       N  0.18838185  0.71037773  0.96055988    -0.38100
N1250       N  0.13786511  0.65222060  0.93209482    -0.39700
N1251       N  0.19817376  0.66234705  0.15415202    -0.37500
N1252       N  0.14027276  0.60990882  0.12989700    -0.39900
N1253       N  0.08638523  0.67662653  0.03048108    -0.39600
N1254       N  0.03273858  0.62552239  0.99802423    -0.37300
N1255       N  0.13073159  0.52642219  0.99505195    -0.38300
N1256       N  0.18362176  0.58214253  0.01078824    -0.40000
C1257       C  0.36710216  0.53371639  0.84002252    -0.04900
C1258       C  0.34860753  0.51284507  0.84170171     0.09200
C1259       C  0.35597429  0.98971787  0.86175739    -0.02300
C1260       C  0.38144591  0.98691075  0.87861128    -0.00600
C1261       C  0.40011546  0.50740099  0.87670490    -0.04200
C1262       C  0.39260339  0.53105710  0.85751171     0.02800
C1263       C  0.32229355  0.51427993  0.81958174     0.09700
C1264       C  0.33692039  0.96882171  0.86698795     0.35600
C1265       C  0.41056185  0.55318070  0.85753157     0.39000
C1266       C  0.32173163  0.51328608  0.77761600    -0.04500
C1267       C  0.29760938  0.51093823  0.75624964     0.02600
C1268       C  0.27230924  0.50942494  0.77630213    -0.04100
C1269       C  0.27352661  0.51162764  0.81941820    -0.00400
C1270       C  0.29810204  0.51421388  0.84012872    -0.02900
C1271       C  0.34660740  0.51285427  0.75617142     0.36300
C1272       C  0.25038706  0.01199286  0.84477150     0.39900
C1273       C  0.30015526  0.50586804  0.71358873     0.39100
C1274       C  0.29858729  0.51686702  0.88345277     0.36000
C1275       C  0.35949832  0.55828845  0.82132149     0.36700
C1276       C  0.38811793  0.96278419  0.89935921     0.39900
N1277       N  0.30405059  0.50079047  0.68031512    -0.38100
N1278       N  0.36649062  0.51254067  0.73941588    -0.39700
N1279       N  0.23288182  0.01281434  0.86682978    -0.37500
N1280       N  0.29917587  0.01863206  0.91799838    -0.39900
N1281       N  0.32166009  0.95235487  0.87234956    -0.39600
N1282       N  0.39313100  0.94345881  0.91589078    -0.37300
N1283       N  0.42471587  0.57099962  0.85759697    -0.38300
N1284       N  0.35329924  0.57783542  0.80630937    -0.40000
C1285       C  0.11803411  0.98455222  0.81580867    -0.04900
C1286       C  0.13788137  0.50254831  0.82745890     0.09200
C1287       C  0.13150186  0.52192141  0.85639180    -0.02300
C1288       C  0.10632765  0.52242809  0.87438079    -0.00600
C1289       C  0.08731196  0.50279712  0.86564555    -0.04200
C1290       C  0.09305772  0.98415254  0.83503306     0.02800
C1291       C  0.16469443  0.50311829  0.80710525     0.09700
C1292       C  0.15085380  0.54174075  0.86728845     0.35600
C1293       C  0.07378675  0.96447681  0.82385728     0.39000
C1294       C  0.17075966  0.52354808  0.78089054    -0.04500
C1295       C  0.19601969  0.52558344  0.76291199     0.02600
C1296       C  0.21738423  0.50701938  0.77146046    -0.04100
C1297       C  0.20913069  0.98594863  0.79686719    -0.00400
C1298       C  0.18360678  0.98462896  0.81455249    -0.02900
C1299       C  0.14986514  0.54215299  0.77074728     0.36300
C1300       C  0.22691564  0.96461068  0.80681846     0.39900
C1301       C  0.19687513  0.54553500  0.73216627     0.39100
C1302       C  0.17704696  0.96318781  0.84124811     0.36000
C1303       C  0.12361839  0.96597799  0.78386344     0.36700
C1304       C  0.09937814  0.54435534  0.90012238     0.39900
N1305       N  0.19569822  0.56164614  0.70791571    -0.38100
N1306       N  0.13323766  0.55683529  0.76271158    -0.39700
N1307       N  0.23969702  0.94710349  0.81749048    -0.37500
N1308       N  0.17173763  0.94607931  0.86243198    -0.39900
N1309       N  0.16626967  0.55765128  0.87547017    -0.39600
N1310       N  0.09383919  0.56245990  0.91945636    -0.37300
N1311       N  0.05836697  0.94890105  0.81433119    -0.38300
N1312       N  0.12802011  0.95121339  0.75823300    -0.40000
C1313       C  0.48071266  0.67577668  0.78756295    -0.04900
C1314       C  0.00010116  0.66872238  0.81522622     0.09200
C1315       C  0.02117213  0.68593877  0.82175064    -0.02300
C1316       C  0.02313146  0.71021165  0.80065066    -0.00600
C1317       C  0.00258879  0.71938211  0.77370210    -0.04200
C1318       C  0.48248332  0.69952763  0.76547273     0.02800
C1319       C  0.99871697  0.64245094  0.83638713     0.09700
C1320       C  0.04089190  0.67856513  0.85140166     0.35600
C1321       C  0.46510453  0.69995318  0.73102867     0.39000
C1322       C  0.01426342  0.62082022  0.82369237    -0.04500
C1323       C  0.01326683  0.59640112  0.84422059     0.02600
C1324       C  0.99623208  0.59315940  0.87728795    -0.04100
C1325       C  0.47995622  0.61471224  0.88874295    -0.00400
C1326       C  0.48123456  0.63903134  0.86851907    -0.02900
C1327       C  0.03117281  0.62375355  0.78917934     0.36300
C1328       C  0.46151582  0.61213394  0.92145682     0.39900
C1329       C  0.03078789  0.57519926  0.83245899     0.39100
C1330       C  0.46430139  0.66066126  0.88071160     0.36000
C1331       C  0.45904928  0.65753379  0.78057532     0.36700
C1332       C  0.04751234  0.72420036  0.80741238     0.39900
N1333       N  0.04494535  0.55843281  0.82297505    -0.38100
N1334       N  0.04451787  0.62621374  0.76148153    -0.39700
N1335       N  0.44667456  0.61069896  0.94747561    -0.37500
N1336       N  0.45058875  0.67776953  0.89027348    -0.39900
N1337       N  0.05635514  0.67256401  0.87523074    -0.39600
N1338       N  0.06811017  0.73258869  0.81505094    -0.37300
N1339       N  0.45092703  0.69875154  0.70391362    -0.38300
N1340       N  0.44180902  0.64308012  0.77514197    -0.40000
C1341       C  0.49605578  0.80180761  0.83813157    -0.04900
C1342       C  0.99665163  0.82538555  0.81612778     0.09200
C1343       C  0.00005482  0.82385012  0.77464952    -0.02300
C1344       C  0.00309561  0.79927500  0.75498051    -0.00600
C1345       C  0.00234632  0.77442063  0.77625182    -0.04200
C1346       C  0.49910400  0.77666861  0.81906296     0.02800
C1347       C  0.99532580  0.85229357  0.83619935     0.09700
C1348       C  0.00164863  0.84817406  0.75197397     0.35600
C1349       C  0.49889624  0.75408833  0.84522885     0.39000
C1350       C  0.01854110  0.86467118  0.85013904    -0.04500
C1351       C  0.01793229  0.89087295  0.86495067     0.02600
C1352       C  0.99407753  0.90528202  0.86662658    -0.04100
C1353       C  0.47089568  0.89303684  0.85206359    -0.00400
C1354       C  0.47144203  0.86664759  0.83750831    -0.02900
C1355       C  0.04308540  0.85014203  0.85113273     0.36300
C1356       C  0.44635484  0.90751478  0.85220164     0.39900
C1357       C  0.04204120  0.90290468  0.87948996     0.39100
C1358       C  0.44718777  0.85372844  0.82565216     0.36000
C1359       C  0.49232312  0.80359060  0.88110235     0.36700
C1360       C  0.01039202  0.80081068  0.71308064     0.39900
N1361       N  0.06139377  0.91239876  0.89079482    -0.38100
N1362       N  0.06296678  0.83908249  0.85311140    -0.39700
N1363       N  0.42665349  0.91894411  0.85141449    -0.37500
N1364       N  0.42780361  0.84323801  0.81677923    -0.39900
N1365       N  0.00310083  0.86742772  0.73378028    -0.39600
N1366       N  0.01715530  0.80413563  0.68046788    -0.37300
N1367       N  0.49806579  0.73714482  0.86823314    -0.38300
N1368       N  0.48930073  0.80497993  0.91536049    -0.40000
C1369       C  0.45228827  0.75828421  0.65932451    -0.04900
C1370       C  0.42818482  0.76020337  0.68003887     0.09200
C1371       C  0.42890368  0.75886053  0.72188410    -0.02300
C1372       C  0.45288583  0.75463963  0.74300639    -0.00600
C1373       C  0.47815659  0.75176650  0.72299221    -0.04200
C1374       C  0.47684782  0.75412437  0.67988860     0.02800
C1375       C  0.40152764  0.76108855  0.65847088     0.09700
C1376       C  0.40412252  0.76033057  0.74350503     0.35600
C1377       C  0.49989086  0.75271017  0.65476403     0.39000
C1378       C  0.39133043  0.73808837  0.64007314    -0.04500
C1379       C  0.36540580  0.73756092  0.62430458     0.02600
C1380       C  0.34879273  0.75991205  0.62638255    -0.04100
C1381       C  0.35886576  0.78309531  0.64434348    -0.00400
C1382       C  0.38502625  0.78374025  0.66011797    -0.02900
C1383       C  0.40754328  0.71472244  0.63629800     0.36300
C1384       C  0.34256601  0.80653993  0.64527596     0.39900
C1385       C  0.35594932  0.71373740  0.60501476     0.39100
C1386       C  0.39524132  0.80801314  0.67698814     0.36000
C1387       C  0.45172967  0.76083159  0.61605286     0.36700
C1388       C  0.44990097  0.75010916  0.78559396     0.39900
N1389       N  0.34871282  0.69451004  0.58995744    -0.38100
N1390       N  0.41984745  0.69574508  0.63192507    -0.39700
N1391       N  0.32941971  0.82516919  0.64597503    -0.37500
N1392       N  0.40330435  0.82750561  0.69024693    -0.39900
N1393       N  0.38433164  0.76148952  0.76042992    -0.39600
N1394       N  0.44524631  0.74612613  0.81889043    -0.37300
N1395       N  0.51726931  0.75229247  0.63245862    -0.38300
N1396       N  0.45139395  0.76287165  0.58156646    -0.40000
C1397       C  0.07979146  0.76346125  0.72092422    -0.04900
C1398       C  0.08531141  0.74466925  0.69148559     0.09200
C1399       C  0.06590787  0.72589824  0.68209451    -0.02300
C1400       C  0.04094536  0.72600624  0.70182069    -0.00600
C1401       C  0.03331478  0.74683303  0.72905150    -0.04200
C1402       C  0.05506684  0.76421242  0.74041953     0.02800
C1403       C  0.11151453  0.74589371  0.66984034     0.09700
C1404       C  0.07146047  0.70681635  0.65073181     0.35600
C1405       C  0.05528456  0.78054251  0.77618211     0.39000
C1406       C  0.13334066  0.73021636  0.68158300    -0.04500
C1407       C  0.15821152  0.73308376  0.66253316     0.02600
C1408       C  0.16181105  0.75248112  0.63280244    -0.04100
C1409       C  0.14052515  0.76962176  0.62401134    -0.00400
C1410       C  0.11550079  0.76579872  0.64125193    -0.02900
C1411       C  0.13034592  0.71160874  0.71393502     0.36300
C1412       C  0.14460954  0.79207749  0.59820313     0.39900
C1413       C  0.17988706  0.71586228  0.67313007     0.39100
C1414       C  0.09369273  0.78275637  0.63003440     0.36000
C1415       C  0.10051904  0.78191770  0.73230074     0.36700
C1416       C  0.02384078  0.70388851  0.69331236     0.39900
N1417       N  0.19721093  0.70216832  0.68178806    -0.38100
N1418       N  0.12805641  0.69693457  0.74005576    -0.39700
N1419       N  0.14774465  0.81036772  0.57834751    -0.37500
N1420       N  0.07617824  0.79619227  0.62136673    -0.39900
N1421       N  0.07586683  0.69186060  0.62535808    -0.39600
N1422       N  0.01169937  0.68539357  0.68495890    -0.37300
N1423       N  0.05702268  0.79305779  0.80508503    -0.38300
N1424       N  0.11695562  0.79653543  0.74141164    -0.40000
C1425       C  0.23181888  0.62124673  0.64520112    -0.04900
C1426       C  0.25470898  0.61190842  0.66489620     0.09200
C1427       C  0.27618165  0.62953651  0.67016875    -0.02300
C1428       C  0.27500529  0.65552761  0.65477463    -0.00600
C1429       C  0.25266273  0.66416720  0.63337479    -0.04200
C1430       C  0.23083305  0.64709444  0.62980601     0.02800
C1431       C  0.25471589  0.58492656  0.68449287     0.09700
C1432       C  0.29957079  0.62102333  0.69153595     0.35600
C1433       C  0.20696888  0.65633253  0.61042991     0.39000
C1434       C  0.25379064  0.56133730  0.66197531    -0.04500
C1435       C  0.25121072  0.53620720  0.68081684     0.02600
C1436       C  0.24908760  0.53390577  0.72380085    -0.04100
C1437       C  0.25066360  0.55873957  0.74564156    -0.00400
C1438       C  0.25331377  0.58331378  0.72621763    -0.02900
C1439       C  0.25482679  0.56310127  0.61860291     0.36300
C1440       C  0.24574609  0.56071076  0.78828322     0.39900
C1441       C  0.25090328  0.51370548  0.65410260     0.39100
C1442       C  0.25226490  0.60768103  0.74945080     0.36000
C1443       C  0.20903588  0.60438183  0.64028923     0.36700
C1444       C  0.29685876  0.67341311  0.66064974     0.39900
N1445       N  0.25001452  0.99684756  0.63069502    -0.38100
N1446       N  0.25524234  0.56450224  0.58404163    -0.39700
N1447       N  0.24136549  0.56517446  0.82160358    -0.37500
N1448       N  0.25130512  0.62705180  0.76779700    -0.39900
N1449       N  0.31818920  0.61454215  0.70900428    -0.39600
N1450       N  0.31408078  0.68790498  0.66588019    -0.37300
N1451       N  0.18768416  0.66363694  0.59566609    -0.38300
N1452       N  0.19062163  0.59139120  0.63528001    -0.40000
C1453       C  0.22708662  0.88175885  0.66741906    -0.04900
C1454       C  0.24491389  0.90243720  0.65908715     0.09200
C1455       C  0.26584160  0.89734474  0.63231026    -0.02300
C1456       C  0.26920210  0.87207807  0.61489009    -0.00600
C1457       C  0.25127686  0.85138980  0.62291710    -0.04200
C1458       C  0.23025065  0.85646489  0.64949121     0.02800
C1459       C  0.24413622  0.92837323  0.68228908     0.09700
C1460       C  0.28411741  0.91829166  0.62268195     0.35600
C1461       C  0.21127535  0.83588976  0.65730727     0.39000
C1462       C  0.26361960  0.93349244  0.71098086    -0.04500
C1463       C  0.26435674  0.95763387  0.73272650     0.02600
C1464       C  0.24572579  0.97908097  0.72521361    -0.04100
C1465       C  0.22436781  0.97167728  0.69851871    -0.00400
C1466       C  0.22429301  0.94734050  0.67668179    -0.02900
C1467       C  0.28270257  0.91270784  0.71948850     0.36300
C1468       C  0.20181323  0.98862187  0.69179179     0.39900
C1469       C  0.28332227  0.95726074  0.76528687     0.39100
C1470       C  0.20361187  0.94180495  0.64767357     0.36000
C1471       C  0.20519507  0.88659268  0.69409878     0.36700
C1472       C  0.29158296  0.86739430  0.58896575     0.39900
N1473       N  0.29877929  0.95522807  0.79063225    -0.38100
N1474       N  0.29775679  0.89614332  0.72608284    -0.39700
N1475       N  0.18299674  0.00057477  0.68446466    -0.37500
N1476       N  0.18705424  0.93734470  0.62472188    -0.39900
N1477       N  0.29874340  0.93495775  0.61514419    -0.39600
N1478       N  0.30964974  0.86404440  0.56859980    -0.37300
N1479       N  0.19617857  0.81939958  0.66349204    -0.38300
N1480       N  0.18748313  0.89059186  0.71492779    -0.40000
C1481       C  0.41258066  0.59467925  0.49776812    -0.04900
C1482       C  0.39716929  0.60869053  0.46997856     0.09200
C1483       C  0.39797561  0.60220973  0.42885698    -0.02300
C1484       C  0.41599242  0.58322680  0.41512317    -0.00600
C1485       C  0.43197365  0.56970178  0.44289176    -0.04200
C1486       C  0.42892497  0.57425373  0.48438259     0.02800
C1487       C  0.37998135  0.63035741  0.48399002     0.09700
C1488       C  0.38009972  0.61494129  0.40094808     0.35600
C1489       C  0.44259267  0.55787349  0.51325912     0.39000
C1490       C  0.38674748  0.65656727  0.47552280    -0.04500
C1491       C  0.36889113  0.67694201  0.48402634     0.02600
C1492       C  0.34458835  0.67107821  0.50288931    -0.04100
C1493       C  0.33992307  0.64512257  0.51661895    -0.00400
C1494       C  0.35685986  0.62463525  0.50515568    -0.02900
C1495       C  0.41185414  0.66238442  0.45694482     0.36300
C1496       C  0.31742626  0.63911174  0.54163808     0.39900
C1497       C  0.37554783  0.70348570  0.47175957     0.39100
C1498       C  0.34982362  0.59750294  0.51325596     0.36000
C1499       C  0.41204127  0.60169485  0.53995106     0.36700
C1500       C  0.41759388  0.57709733  0.37274919     0.39900
N1501       N  0.38122467  0.72454304  0.46200393    -0.38100
N1502       N  0.43188040  0.66698146  0.44221840    -0.39700
N1503       N  0.29955268  0.63412231  0.56153404    -0.37500
N1504       N  0.34418089  0.57585033  0.51941416    -0.39900
N1505       N  0.36566092  0.62498692  0.37887812    -0.39600
N1506       N  0.41851997  0.57188743  0.33901438    -0.37300
N1507       N  0.45315051  0.54467741  0.53647192    -0.38300
N1508       N  0.41164463  0.60738334  0.57353937    -0.40000
C1509       C  0.15534962  0.61766312  0.47909351    -0.04900
C1510       C  0.12942511  0.62391492  0.49013558     0.09200
C1511       C  0.12413598  0.64738699  0.51105861    -0.02300
C1512       C  0.14448474  0.66557527  0.51849996    -0.00600
C1513       C  0.17012866  0.66102162  0.50295954    -0.04200
C1514       C  0.17556797  0.63635982  0.48416842     0.02800
C1515       C  0.10752839  0.60629708  0.47732699     0.09700
C1516       C  0.09756796  0.65293068  0.52441267     0.35600
C1517       C  0.20129326  0.63028047  0.46782218     0.39000
C1518       C  0.10015593  0.58487337  0.50134161    -0.04500
C1519       C  0.08053855  0.56739175  0.48786076     0.02600
C1520       C  0.06900262  0.57072503  0.44962390    -0.04100
C1521       C  0.07602033  0.59248256  0.42596158    -0.00400
C1522       C  0.09505882  0.61042080  0.44000471    -0.02900
C1523       C  0.11301626  0.58074649  0.53965485     0.36300
C1524       C  0.06336721  0.59646898  0.38743808     0.39900
C1525       C  0.07175300  0.54629302  0.51360740     0.39100
C1526       C  0.10188208  0.63312629  0.41608603     0.36000
C1527       C  0.16093699  0.59180336  0.46237665     0.36700
C1528       C  0.13860391  0.68919537  0.54148987     0.39900
N1529       N  0.06454019  0.52956395  0.53417225    -0.38100
N1530       N  0.12342206  0.57746079  0.57011619    -0.39700
N1531       N  0.05300838  0.59959390  0.35689781    -0.37500
N1532       N  0.10719327  0.65129803  0.39705039    -0.39900
N1533       N  0.07637599  0.65734901  0.53508278    -0.39600
N1534       N  0.13382933  0.70807615  0.55962186    -0.37300
N1535       N  0.22155467  0.62483198  0.45439633    -0.38300
N1536       N  0.16491210  0.57087886  0.44990130    -0.40000
C1537       C  0.09446280  0.91421555  0.48532087    -0.04900
C1538       C  0.10644269  0.89815999  0.45601757     0.09200
C1539       C  0.10077760  0.90218559  0.41503690    -0.02300
C1540       C  0.08297568  0.92211271  0.40350655    -0.00600
C1541       C  0.07053119  0.93766022  0.43294708    -0.04200
C1542       C  0.07651486  0.93387808  0.47383924     0.02800
C1543       C  0.12539009  0.87727766  0.46866177     0.09700
C1544       C  0.11330580  0.88587834  0.38484510     0.35600
C1545       C  0.06392799  0.95010497  0.50411849     0.39000
C1546       C  0.11754440  0.85072830  0.46934931    -0.04500
C1547       C  0.13573914  0.83087295  0.47990599     0.02600
C1548       C  0.16180399  0.83769741  0.49198154    -0.04100
C1549       C  0.16820777  0.86488863  0.49603426    -0.00400
C1550       C  0.15060629  0.88434269  0.48246293    -0.02900
C1551       C  0.09047276  0.84400596  0.45977235     0.36300
C1552       C  0.19244800  0.87333009  0.51541016     0.39900
C1553       C  0.12723075  0.80364532  0.47774683     0.39100
C1554       C  0.15839663  0.91184025  0.48280006     0.36000
C1555       C  0.10070316  0.91039334  0.52733188     0.36700
C1556       C  0.07767888  0.92694730  0.36149267     0.39900
N1557       N  0.12021690  0.78199879  0.47608030    -0.38100
N1558       N  0.06877563  0.83886468  0.45259680    -0.39700
N1559       N  0.21162621  0.88022057  0.53106481    -0.37500
N1560       N  0.16448308  0.93377867  0.48309716    -0.39900
N1561       N  0.12319116  0.87282130  0.36069580    -0.39600
N1562       N  0.07361210  0.93102445  0.32797603    -0.37300
N1563       N  0.05385472  0.96304395  0.52822601    -0.38300
N1564       N  0.10609222  0.90727408  0.56066823    -0.40000
C1565       C  0.34994874  0.88242066  0.44554213    -0.04900
C1566       C  0.37538590  0.88024060  0.46192508     0.09200
C1567       C  0.38137427  0.86003295  0.48917340    -0.02300
C1568       C  0.36199158  0.84158591  0.49948614    -0.00600
C1569       C  0.33608575  0.84399561  0.48377673    -0.04200
C1570       C  0.33002098  0.86520912  0.45780169     0.02800
C1571       C  0.39574029  0.89981637  0.45107818     0.09700
C1572       C  0.40777082  0.85783609  0.50566407     0.35600
C1573       C  0.30354851  0.86945973  0.44275956     0.39000
C1574       C  0.40195764  0.92027485  0.47812275    -0.04500
C1575       C  0.42096651  0.93904091  0.46786968     0.02600
C1576       C  0.43348389  0.93761463  0.43016646    -0.04100
C1577       C  0.42689831  0.91735779  0.40287616    -0.00400
C1578       C  0.40809030  0.89840836  0.41341415    -0.02900
C1579       C  0.38848127  0.92212271  0.51627425     0.36300
C1580       C  0.43953368  0.91600189  0.36409061     0.39900
C1581       C  0.42760792  0.95985992  0.49610062     0.39100
C1582       C  0.40089030  0.87778634  0.38526674     0.36000
C1583       C  0.34474517  0.90151056  0.41427345     0.36700
C1584       C  0.36897265  0.82019977  0.52622626     0.39900
N1585       N  0.43272687  0.97660031  0.51843995    -0.38100
N1586       N  0.37766044  0.92346298  0.54662636    -0.39700
N1587       N  0.44967566  0.91477750  0.33319424    -0.37500
N1588       N  0.39462603  0.86155630  0.36276234    -0.39900
N1589       N  0.42880452  0.85612334  0.51884702    -0.39600
N1590       N  0.37472952  0.80296434  0.54704468    -0.37300
N1591       N  0.28246775  0.87367130  0.43123150    -0.38300
N1592       N  0.34112987  0.91615960  0.38841921    -0.40000
C1593       C  0.11149727  0.73589407  0.36972814    -0.04900
C1594       C  0.10772017  0.75307220  0.33732095     0.09200
C1595       C  0.12934131  0.76797984  0.32351866    -0.02300
C1596       C  0.15426836  0.76641897  0.34305285    -0.00600
C1597       C  0.15799596  0.74931904  0.37594676    -0.04200
C1598       C  0.13644134  0.73348296  0.38800531     0.02800
C1599       C  0.08199230  0.75196692  0.31443589     0.09700
C1600       C  0.12590787  0.78465726  0.28885186     0.35600
C1601       C  0.13991177  0.71358181  0.41832768     0.39000
C1602       C  0.06211433  0.77084521  0.31965687    -0.04500
C1603       C  0.03736141  0.76846349  0.29962541     0.02600
C1604       C  0.03091541  0.74591760  0.27481569    -0.04100
C1605       C  0.05301874  0.72787403  0.26827520    -0.00400
C1606       C  0.07741108  0.73080024  0.28858193    -0.02900
C1607       C  0.06718334  0.79285040  0.34647852     0.36300
C1608       C  0.05405182  0.70778546  0.23731178     0.39900
C1609       C  0.01874943  0.78965506  0.30658604     0.39100
C1610       C  0.09892706  0.71224843  0.28147042     0.36000
C1611       C  0.08959526  0.72014391  0.38381932     0.36700
C1612       C  0.17580015  0.78273617  0.32967060     0.39900
N1613       N  0.50507370  0.80717184  0.31440007    -0.38100
N1614       N  0.07120454  0.81040878  0.36783539    -0.39700
N1615       N  0.05688389  0.69181759  0.21288110    -0.37500
N1616       N  0.11596223  0.69760294  0.27551035    -0.39900
N1617       N  0.12304067  0.79788399  0.26107501    -0.39600
N1618       N  0.19298667  0.79573884  0.31879779    -0.37300
N1619       N  0.14199196  0.69725770  0.44202401    -0.38300
N1620       N  0.07215277  0.70759111  0.39497278    -0.40000
C1621       C  0.38977917  0.76736160  0.35520327    -0.04900
C1622       C  0.39870057  0.74299029  0.33950416     0.09200
C1623       C  0.38153955  0.72105263  0.34166308    -0.02300
C1624       C  0.35600370  0.72351443  0.35880319    -0.00600
C1625       C  0.34712228  0.74793944  0.37438782    -0.04200
C1626       C  0.36444630  0.76973628  0.37259280     0.02800
C1627       C  0.42546968  0.74082460  0.31888830     0.09700
C1628       C  0.39058267  0.69565569  0.32720920     0.35600
C1629       C  0.35646686  0.79484842  0.38949402     0.39000
C1630       C  0.44933407  0.74272929  0.34045397    -0.04500
C1631       C  0.47433350  0.74285278  0.32070514     0.02600
C1632       C  0.47627814  0.74217312  0.27742136    -0.04100
C1633       C  0.45131217  0.73853173  0.25670642    -0.00400
C1634       C  0.42681826  0.73782667  0.27715988    -0.02900
C1635       C  0.44802263  0.74440968  0.38384736     0.36300
C1636       C  0.44929343  0.73954385  0.21340096     0.39900
C1637       C  0.49706540  0.74255213  0.34699375     0.39100
C1638       C  0.40235771  0.73617315  0.25444790     0.36000
C1639       C  0.40685443  0.79015494  0.35458717     0.36700
C1640       C  0.33931494  0.70054716  0.36194347     0.39900
N1641       N  0.01419061  0.74179095  0.36998414    -0.38100
N1642       N  0.44696664  0.74587799  0.41838977    -0.39700
N1643       N  0.44539319  0.74088964  0.17931622    -0.37500
N1644       N  0.38297816  0.73492833  0.23619954    -0.39900
N1645       N  0.39799947  0.67549628  0.31548736    -0.39600
N1646       N  0.32607241  0.68212556  0.36427990    -0.37300
N1647       N  0.35055294  0.81509100  0.40270387    -0.38300
N1648       N  0.42023921  0.80854599  0.35511357    -0.40000
C1649       C  0.22273610  0.88533281  0.35530212    -0.04900
C1650       C  0.24533093  0.89515084  0.33555243     0.09200
C1651       C  0.26721615  0.87791533  0.33101393    -0.02300
C1652       C  0.26653645  0.85176758  0.34611660    -0.00600
C1653       C  0.24442307  0.84251461  0.36718654    -0.04200
C1654       C  0.22216819  0.85922278  0.37019214     0.02800
C1655       C  0.24511090  0.92286369  0.31777267     0.09700
C1656       C  0.29120570  0.88710181  0.31263566     0.35600
C1657       C  0.19834290  0.84930493  0.38838460     0.39000
C1658       C  0.26073805  0.94367377  0.33324976    -0.04500
C1659       C  0.26160470  0.96878377  0.31367373     0.02600
C1660       C  0.24433522  0.97473843  0.28062835    -0.04100
C1661       C  0.22374046  0.95562004  0.27515073    -0.00400
C1662       C  0.22707441  0.92925052  0.28728052    -0.02900
C1663       C  0.27524303  0.93945490  0.37006160     0.36300
C1664       C  0.19659815  0.96315163  0.26855754     0.39900
C1665       C  0.28006983  0.98811718  0.32869357     0.39100
C1666       C  0.21082316  0.90892677  0.26909924     0.36000
C1667       C  0.20030809  0.90252035  0.36203638     0.36700
C1668       C  0.28918447  0.83468100  0.34132142     0.39900
N1669       N  0.29478441  0.00315405  0.34212907    -0.38100
N1670       N  0.28620257  0.93621197  0.40006725    -0.39700
N1671       N  0.17446170  0.96793464  0.26471547    -0.37500
N1672       N  0.19792499  0.89280604  0.25429276    -0.39900
N1673       N  0.31098696  0.89361149  0.29885918    -0.39600
N1674       N  0.30727650  0.82113556  0.33687712    -0.37300
N1675       N  0.17911317  0.84129070  0.40207394    -0.38300
N1676       N  0.18242307  0.91621671  0.36742370    -0.40000
C1677       C  0.27040358  0.60937094  0.36716426    -0.04900
C1678       C  0.25283235  0.60527667  0.33485869     0.09200
C1679       C  0.23589572  0.62638412  0.32401104    -0.02300
C1680       C  0.23658605  0.65096974  0.34509312    -0.00600
C1681       C  0.25468196  0.65524759  0.37692627    -0.04200
C1682       C  0.27182815  0.63409347  0.38704248     0.02800
C1683       C  0.25197983  0.57839112  0.31371353     0.09700
C1684       C  0.21695496  0.62261786  0.29200211     0.35600
C1685       C  0.29152609  0.63756961  0.41793208     0.39000
C1686       C  0.23207682  0.56003060  0.32215638    -0.04500
C1687       C  0.23201286  0.53424112  0.30457497     0.02600
C1688       C  0.25193139  0.52579336  0.27661815    -0.04100
C1689       C  0.27407988  0.54361233  0.27404930    -0.00400
C1690       C  0.27300399  0.56983007  0.28962815    -0.02900
C1691       C  0.21130492  0.56807338  0.34923507     0.36300
C1692       C  0.30018469  0.53496501  0.26302907     0.39900
C1693       C  0.21110137  0.51684649  0.31669508     0.39100
C1694       C  0.29443455  0.58802436  0.28186939     0.36000
C1695       C  0.28632791  0.58754586  0.38141940     0.36700
C1696       C  0.21753072  0.67123999  0.33538007     0.39900
N1697       N  0.19411590  0.50417823  0.32902219    -0.38100
N1698       N  0.19489712  0.57508025  0.37070162    -0.39700
N1699       N  0.32194882  0.52977410  0.25670620    -0.37500
N1700       N  0.31163880  0.60228933  0.27558317    -0.39900
N1701       N  0.20146712  0.61998931  0.26679869    -0.39600
N1702       N  0.20210861  0.68723562  0.32759904    -0.37300
N1703       N  0.30755625  0.63989449  0.44228296    -0.38300
N1704       N  0.29880859  0.57010193  0.39312272    -0.40000
O1705       O  0.75305998  0.20331550  0.38767910    -0.79600
O1706       O  0.75513201  0.21144156  0.61942146    -0.81100
O1707       O  0.79959421  0.18231680  0.50324697    -0.78200
O1708       O  0.71536461  0.17599478  0.50570680    -0.76500
O1709       O  0.68260055  0.20638386  0.50216163    -0.78300
O1710       O  0.82955485  0.21535901  0.50547163    -0.79300
O1711       O  0.75528818  0.18069021  0.56880834    -0.80600
O1712       O  0.75518748  0.17565750  0.44147072    -0.80900
Eu1713     Eu  0.75575619  0.20151080  0.50367587     2.39200
O1714       O  0.72913741  0.22775795  0.54521318    -0.88400
O1715       O  0.78067195  0.22722341  0.45997155    -0.92000
C1716       C  0.75420953  0.17985843  0.40344284     1.02700
C1717       C  0.75488432  0.18728337  0.60599250     1.02500
C1718       C  0.82336627  0.19089582  0.50460614     1.02500
C1719       C  0.69092375  0.18237242  0.50381715     1.00300
H1720       H  0.79277489  0.21965977  0.56088679     0.30100
O1721       O  0.78112761  0.22976822  0.54464987    -1.00800
H1722       H  0.71698337  0.21284971  0.44526877     0.30100
O1723       O  0.72793854  0.22497395  0.46039741    -1.03300
O1724       O  0.75256410  0.30328095  0.61313921    -0.80500
O1725       O  0.75016658  0.29511921  0.38143816    -0.80100
O1726       O  0.82960280  0.26024572  0.56285056    -0.78500
O1727       O  0.67938259  0.25087893  0.56700351    -0.81900
O1728       O  0.67786877  0.25074733  0.43851215    -0.79700
O1729       O  0.82944265  0.25219567  0.43853304    -0.78400
O1730       O  0.79160681  0.33015954  0.49314973    -0.79900
O1731       O  0.70739415  0.32525716  0.49323823    -0.81800
O1732       O  0.82453102  0.29986486  0.49246323    -0.78500
O1733       O  0.67688629  0.29310909  0.49942357    -0.81200
O1734       O  0.80099648  0.25910070  0.61570124    -0.77000
O1735       O  0.79990806  0.24841166  0.38664397    -0.77000
O1736       O  0.70662764  0.24962115  0.38585296    -0.76600
O1737       O  0.70923563  0.25426668  0.61846675    -0.80100
O1738       O  0.75123708  0.33089080  0.55906111    -0.79600
O1739       O  0.74737644  0.32602912  0.43161620    -0.77900
Eu1740     Eu  0.75443365  0.25638652  0.58681692     2.39800
Eu1741     Eu  0.75303431  0.25030510  0.41475304     2.39600
Eu1742     Eu  0.80521960  0.25627841  0.50049314     2.38400
Eu1743     Eu  0.70123293  0.25114065  0.50215446     2.39900
Eu1744     Eu  0.75087846  0.30537361  0.49716116     2.39800
O1745       O  0.72620788  0.27627248  0.45772938    -0.92300
O1746       O  0.77877524  0.28271617  0.54155923    -0.91200
C1747       C  0.75183831  0.32660795  0.59698672     1.02900
C1748       C  0.74773628  0.31929850  0.39441423     1.01600
C1749       C  0.82463524  0.26019583  0.60051850     1.01000
C1750       C  0.68528873  0.25235804  0.60449999     1.03000
C1751       C  0.68291492  0.24994886  0.40079540     1.01900
C1752       C  0.82386666  0.24946801  0.40120317     1.00800
C1753       C  0.81599049  0.32369628  0.49065216     1.00800
C1754       C  0.68340147  0.31744446  0.49497882     1.03400
H1755       H  0.78855142  0.29049042  0.43865015     0.30800
O1756       O  0.77803828  0.27945879  0.45577399    -1.04500
H1757       H  0.71480453  0.29119092  0.55736269     0.32900
O1758       O  0.72632634  0.27998607  0.54225979    -1.07000
N1759       N  0.50187317  0.46398387  0.41265061    -0.36100
N1760       N  0.54212585  0.00468976  0.42255146    -0.56600
N1761       N  0.50179863  0.04534313  0.42539794    -0.36100
N1762       N  0.96166858  0.00462211  0.41963022    -0.56600
C1763       C  0.52326229  0.44912268  0.42136602     0.27500
C1764       C  0.98046950  0.44909002  0.42045232     0.27500
C1765       C  0.52304836  0.05968783  0.43651479     0.27500
C1766       C  0.98023622  0.05972569  0.43467719     0.27500
C1767       C  0.55767905  0.48389953  0.41688782     0.36100
C1768       C  0.55787027  0.02604720  0.42327132     0.36100
C1769       C  0.94574834  0.48340262  0.41171117     0.36100
C1770       C  0.94563607  0.02579007  0.42078619     0.36100
C1771       C  0.51534146  0.42416176  0.43275574    -0.21300
C1772       C  0.98838915  0.42419301  0.43241895    -0.21300
C1773       C  0.51491915  0.08395966  0.45112780    -0.21300
C1774       C  0.98798613  0.08410676  0.44956853    -0.21300
C1775       C  0.58363008  0.49210092  0.41490704    -0.22400
C1776       C  0.58385318  0.01860181  0.41762654    -0.22400
C1777       C  0.91969245  0.49109246  0.40760643    -0.22400
C1778       C  0.91963718  0.01805462  0.41593962    -0.22400
C1779       C  0.54979715  0.45743038  0.42045562    -0.17700
C1780       C  0.95390312  0.45720830  0.41771375    -0.17700
C1781       C  0.95369279  0.05147008  0.43118544    -0.17700
C1782       C  0.54965042  0.05164652  0.43413180    -0.17700
H1783       H  0.52766698  0.40774663  0.44148217     0.15200
H1784       H  0.97606007  0.40780027  0.44080786     0.15200
H1785       H  0.52707566  0.09990905  0.46219372     0.15200
H1786       H  0.97557822  0.10026776  0.45915698     0.15200
H1787       H  0.60103939  0.47989352  0.41244317     0.13500
H1788       H  0.60104442  0.03114995  0.41784690     0.13400
H1789       H  0.90259065  0.47856376  0.40448128     0.13500
H1790       H  0.90212749  0.03016462  0.41729674     0.13400
H1791       H  0.50191878  0.48265847  0.40019088     0.26700
H1792       H  0.50200430  0.02739889  0.41053627     0.26700
O1793       O  0.49345401  0.45303669  0.88099796    -0.79600
O1794       O  0.50040047  0.44679177  0.11191366    -0.81100
O1795       O  0.53489053  0.42030720  0.98955954    -0.78200
O1796       O  0.94945565  0.42614637  0.99985669    -0.76500
O1797       O  0.92001713  0.45975470  0.99851284    -0.78300
O1798       O  0.56814812  0.45010751  0.99317819    -0.79300
O1799       O  0.49696928  0.41929358  0.05763002    -0.80600
O1800       O  0.49211977  0.42237070  0.93120507    -0.80900
Eu1801     Eu  0.49384847  0.44467571  0.99563709     2.39200
O1802       O  0.97015465  0.47069015  0.04114173    -0.88400
O1803       O  0.52037908  0.47033821  0.95342212    -0.92000
C1804       C  0.49279606  0.42880156  0.89406803     1.02700
C1805       C  0.49928381  0.42340547  0.09561239     1.02500
C1806       C  0.55942112  0.42632056  0.99105187     1.02500
C1807       C  0.92574671  0.43523195  0.99986477     1.00300
H1808       H  0.53422045  0.45595253  0.05196981     0.30100
O1809       O  0.52285915  0.46804649  0.03777654    -1.00800
H1810       H  0.95586201  0.46296986  0.94012012     0.30100
O1811       O  0.96805046  0.47306652  0.95605674    -1.03300
O1812       O  0.50175573  0.03843340  0.11900236    -0.80500
O1813       O  0.49594029  0.04520943  0.88634689    -0.80100
O1814       O  0.57252094  0.49458832  0.05852968    -0.78500
O1815       O  0.92212144  0.49722481  0.06519640    -0.81900
O1816       O  0.92021769  0.00503860  0.93960291    -0.79700
O1817       O  0.57055675  0.99748821  0.93016889    -0.78400
O1818       O  0.54234569  0.06804675  0.00515548    -0.79900
O1819       O  0.95800159  0.07316834  0.01102533    -0.81800
O1820       O  0.57293180  0.03603671  0.99892325    -0.78500
O1821       O  0.92505751  0.04311904  0.01213768    -0.81200
O1822       O  0.54605476  0.49245956  0.11304470    -0.77000
O1823       O  0.53965180  0.99976742  0.88000730    -0.77000
O1824       O  0.94805046  0.00390506  0.88576596    -0.76600
O1825       O  0.95269911  0.49347122  0.11568543    -0.80100
O1826       O  0.50323107  0.06936401  0.06926434    -0.79600
O1827       O  0.49851959  0.07312649  0.94042406    -0.77900
Eu1828     Eu  0.49904326  0.49355545  0.08535278     2.39800
Eu1829     Eu  0.49461635  0.99883458  0.91296999     2.39600
Eu1830     Eu  0.54885031  0.99444546  0.99520244     2.38400
Eu1831     Eu  0.94514831  0.99995300  0.00159551     2.39900
Eu1832     Eu  0.49901738  0.04860506  0.00323841     2.39800
O1833       O  0.97089637  0.02571191  0.95934169    -0.92300
O1834       O  0.52493389  0.01981334  0.04124383    -0.91200
C1835       C  0.50333430  0.06262882  0.10642766     1.02900
C1836       C  0.49711343  0.06861483  0.90243276     1.01600
C1837       C  0.56931769  0.49322236  0.09653941     1.01000
C1838       C  0.92846441  0.49500973  0.10228375     1.03000
C1839       C  0.92470539  0.00567499  0.90174518     1.01900
C1840       C  0.56392664  0.99957101  0.89301708     1.00800
C1841       C  0.56632614  0.06037369  0.00285052     1.00800
C1842       C  0.93363696  0.06687290  0.01471345     1.03400
H1843       H  0.53396146  0.03429912  0.94156883     0.30800
O1844       O  0.52268277  0.02288197  0.95701613    -1.04500
H1845       H  0.96311713  0.03371702  0.06327516     0.32900
O1846       O  0.97333570  0.02261494  0.04550711    -1.07000
N1847       N  0.74897092  0.20936333  0.07522070    -0.36100
N1848       N  0.78700332  0.25183676  0.08251098    -0.56600
N1849       N  0.74466597  0.29055007  0.08159739    -0.36100
N1850       N  0.70683450  0.24780753  0.07189613    -0.56600
C1851       C  0.77152230  0.19604306  0.06826878     0.27500
C1852       C  0.72904391  0.19393904  0.06209256     0.27500
C1853       C  0.76549757  0.30657408  0.07572127     0.27500
C1854       C  0.72287104  0.30450484  0.07197252     0.27500
C1855       C  0.80374496  0.23134422  0.08588569     0.36100
C1856       C  0.80173207  0.27380894  0.08546558     0.36100
C1857       C  0.69209987  0.22575929  0.07058064     0.36100
C1858       C  0.68982147  0.26816691  0.07402017     0.36100
C1859       C  0.76578628  0.17160417  0.05160269    -0.21300
C1860       C  0.73897652  0.17026954  0.04778217    -0.21300
C1861       C  0.75665552  0.33144038  0.06507447    -0.21300
C1862       C  0.72984110  0.33008803  0.06244124    -0.21300
C1863       C  0.82918819  0.24031560  0.09223249    -0.22400
C1864       C  0.82797556  0.26723706  0.09127171    -0.22400
C1865       C  0.66558247  0.23210207  0.07228880    -0.22400
C1866       C  0.66413917  0.25901865  0.07433419    -0.22400
C1867       C  0.79722655  0.20502779  0.07680032    -0.17700
C1868       C  0.70203734  0.20027407  0.06326395    -0.17700
C1869       C  0.69685165  0.29483759  0.06997816    -0.17700
C1870       C  0.79238556  0.29942521  0.07770185    -0.17700
H1871       H  0.77948905  0.15632724  0.04274294     0.15200
H1872       H  0.72807257  0.15378976  0.03551315     0.15200
H1873       H  0.76833364  0.34868481  0.05864929     0.15200
H1874       H  0.71702934  0.34606695  0.05347335     0.15200
H1875       H  0.84700553  0.22869849  0.09464017     0.13500
H1876       H  0.84467926  0.28035771  0.09314874     0.13400
H1877       H  0.64899678  0.21879783  0.07061189     0.13500
H1878       H  0.64622971  0.27059836  0.07451805     0.13400
H1879       H  0.74719590  0.22684479  0.09118483     0.26700
H1880       H  0.74516804  0.27152042  0.09251996     0.26700
C1881       C  0.50315916  0.24474458  0.25010999    -0.01900
C1882       C  0.74897034  0.99928164  0.25037885    -0.01900
C1883       C  0.50452821  0.24743924  0.74992483    -0.01900
C1884       C  0.74596368  0.50699030  0.74908748    -0.01900
C1885       C  0.69038008  0.47787768  0.17789955    -0.04900
C1886       C  0.67203466  0.49863228  0.18193754     0.09200
C1887       C  0.68096841  0.02152986  0.20088306    -0.02300
C1888       C  0.70657440  0.02374109  0.21798969    -0.00600
C1889       C  0.72344727  0.50141229  0.22007617    -0.04200
C1890       C  0.71635049  0.48013830  0.19356711     0.02800
C1891       C  0.64521126  0.49705383  0.16147581     0.09700
C1892       C  0.66323264  0.04399033  0.20155407     0.35600
C1893       C  0.73491942  0.45973268  0.18250103     0.39000
C1894       C  0.62190445  0.99751271  0.18273610    -0.04500
C1895       C  0.59710721  0.99726317  0.16228848     0.02600
C1896       C  0.59505405  0.49276894  0.12077885    -0.04100
C1897       C  0.61958136  0.48903784  0.10040399    -0.00400
C1898       C  0.64386427  0.49387452  0.11965395    -0.02900
C1899       C  0.62268168  0.99868887  0.22608720     0.36300
C1900       C  0.62077472  0.47796766  0.06029652     0.39900
C1901       C  0.57330710  0.00138684  0.18514258     0.39100
C1902       C  0.66771920  0.49558058  0.09591138     0.36000
C1903       C  0.68177903  0.45310138  0.16027865     0.36700
C1904       C  0.71586620  0.05036048  0.22456250     0.39900
N1905       N  0.55451473  0.00483613  0.20390992    -0.38100
N1906       N  0.62328321  0.99954559  0.26070831    -0.39700
N1907       N  0.62222232  0.46876413  0.02862938    -0.37500
N1908       N  0.68666404  0.49696713  0.07695051    -0.39900
N1909       N  0.64900028  0.06179741  0.20236928    -0.39600
N1910       N  0.72295138  0.07190952  0.22762689    -0.37300
N1911       N  0.74878445  0.44320032  0.17127305    -0.38300
N1912       N  0.67462108  0.43336999  0.14663168    -0.40000
C1913       C  0.86863182  0.01727007  0.16263587    -0.04900
C1914       C  0.85373219  0.49310927  0.16660933     0.09200
C1915       C  0.86601256  0.46961040  0.15272998    -0.02300
C1916       C  0.89176357  0.47006438  0.13609675    -0.00600
C1917       C  0.90512466  0.49413486  0.13000564    -0.04200
C1918       C  0.89280005  0.01773743  0.14146850     0.02800
C1919       C  0.82595742  0.49279492  0.18455986     0.09700
C1920       C  0.85156142  0.44502378  0.15320838     0.35600
C1921       C  0.90280474  0.04273383  0.12749983     0.39000
C1922       C  0.80505562  0.50774068  0.16791330    -0.04500
C1923       C  0.78019483  0.50981399  0.18765511     0.02600
C1924       C  0.77409375  0.49405128  0.22218954    -0.04100
C1925       C  0.79437847  0.97481712  0.23183259    -0.00400
C1926       C  0.82064853  0.97731029  0.21841102    -0.02900
C1927       C  0.80916637  0.52155297  0.13049766     0.36300
C1928       C  0.78699946  0.94824104  0.24132363     0.39900
C1929       C  0.76121895  0.52755699  0.16988652     0.39100
C1930       C  0.84136609  0.96317683  0.23928258     0.36000
C1931       C  0.85807204  0.04163090  0.17868199     0.36700
C1932       C  0.90371999  0.44578100  0.12215146     0.39900
N1933       N  0.74715525  0.54156080  0.15283659    -0.38100
N1934       N  0.81234778  0.53291892  0.10099148    -0.39700
N1935       N  0.78162612  0.92636295  0.24567326    -0.37500
N1936       N  0.85789519  0.95209910  0.25622831    -0.39900
N1937       N  0.83996544  0.42544929  0.15383257    -0.39600
N1938       N  0.91320263  0.42644294  0.11073989    -0.37300
N1939       N  0.91007588  0.06274755  0.11549346    -0.38300
N1940       N  0.84938488  0.06100982  0.19134403    -0.40000
C1941       C  0.52623280  0.30394766  0.17872216    -0.04900
C1942       C  0.50655072  0.32308472  0.18336367     0.09200
C1943       C  0.98611644  0.31804227  0.20991507    -0.02300
C1944       C  0.98389255  0.29347272  0.22980585    -0.00600
C1945       C  0.50281137  0.27200560  0.22405873    -0.04200
C1946       C  0.52477278  0.27911845  0.19859438     0.02800
C1947       C  0.50626057  0.34865868  0.15986190     0.09700
C1948       C  0.96790937  0.33959046  0.21872993     0.35600
C1949       C  0.54650733  0.26139003  0.19056078     0.39000
C1950       C  0.98663432  0.35259381  0.13043544    -0.04500
C1951       C  0.98337790  0.37741311  0.11204235     0.02600
C1952       C  0.50059388  0.39872216  0.12089892    -0.04100
C1953       C  0.52054038  0.39463439  0.15014371    -0.00400
C1954       C  0.52285581  0.37002306  0.17018084    -0.02900
C1955       C  0.96923078  0.33099671  0.11963736     0.36300
C1956       C  0.53945272  0.41522386  0.15866526     0.39900
C1957       C  0.96163454  0.38091934  0.08439837     0.39100
C1958       C  0.54192869  0.36678411  0.20218770     0.36000
C1959       C  0.54872527  0.31030688  0.15393937     0.36700
C1960       C  0.96286729  0.29359894  0.25877715     0.39900
N1961       N  0.94408347  0.38322539  0.06256541    -0.38100
N1962       N  0.95532248  0.31378710  0.11128337    -0.39700
N1963       N  0.55485959  0.43138002  0.16561773    -0.37500
N1964       N  0.55701335  0.36403015  0.22790200    -0.39900
N1965       N  0.95373921  0.35682206  0.22594403    -0.39600
N1966       N  0.94564538  0.29597120  0.28099063    -0.37300
N1967       N  0.56465696  0.24908868  0.18106710    -0.38300
N1968       N  0.56690076  0.31556502  0.13487926    -0.40000
C1969       C  0.00102558  0.16740511  0.23131403    -0.04900
C1970       C  0.49997273  0.16438731  0.18956396     0.09200
C1971       C  0.49904763  0.18737287  0.16596571    -0.02300
C1972       C  0.49991941  0.21315685  0.18354284    -0.00600
C1973       C  0.50137911  0.21689015  0.22641838    -0.04200
C1974       C  0.00101929  0.19274218  0.24956854     0.02800
C1975       C  0.50162894  0.13691755  0.17076849     0.09700
C1976       C  0.49784037  0.18433903  0.12271632     0.35600
C1977       C  0.00476066  0.19271507  0.29265644     0.39000
C1978       C  0.98173536  0.11776754  0.17732540    -0.04500
C1979       C  0.98391172  0.09202111  0.16063497     0.02600
C1980       C  0.50512721  0.08538198  0.13538765    -0.04100
C1981       C  0.52588952  0.10363617  0.13157373    -0.00400
C1982       C  0.52422531  0.12909812  0.14893189    -0.02900
C1983       C  0.95884093  0.12453239  0.20104094     0.36300
C1984       C  0.54982040  0.09552915  0.11153419     0.39900
C1985       C  0.96488426  0.07200575  0.17060977     0.39100
C1986       C  0.54600509  0.14714376  0.14391625     0.36000
C1987       C  0.00454305  0.14403694  0.25586808     0.36700
C1988       C  0.49896570  0.23490257  0.15576978     0.39900
N1989       N  0.95035102  0.05565911  0.17981735    -0.38100
N1990       N  0.94073607  0.12982057  0.22040575    -0.39700
N1991       N  0.56925805  0.08888357  0.09668159    -0.37500
N1992       N  0.56355559  0.16120826  0.13894658    -0.39900
N1993       N  0.49729913  0.18184313  0.08826382    -0.39600
N1994       N  0.49786566  0.25125420  0.13179268    -0.37300
N1995       N  0.00851322  0.19012991  0.32660324    -0.38300
N1996       N  0.00745801  0.12550051  0.27539439    -0.40000
C1997       C  0.64648836  0.35018258  0.06633208    -0.04900
C1998       C  0.63936791  0.34942198  0.02546007     0.09200
C1999       C  0.65078389  0.33083695  0.99945614    -0.02300
C2000       C  0.66948619  0.31296509  0.01425320    -0.00600
C2001       C  0.67622820  0.31324017  0.05536870    -0.04200
C2002       C  0.66476909  0.33190773  0.08142316     0.02800
C2003       C  0.61850673  0.36729778  0.01050101     0.09700
C2004       C  0.64294162  0.33004604  0.95765157     0.35600
C2005       C  0.67191284  0.33246183  0.12350046     0.39000
C2006       C  0.62504461  0.39054605  0.99023724    -0.04500
C2007       C  0.60509247  0.40841374  0.97940414     0.02600
C2008       C  0.57894609  0.40442687  0.99281368    -0.04100
C2009       C  0.57245007  0.38013333  0.01134048    -0.00400
C2010       C  0.59210091  0.36122031  0.01822172    -0.02900
C2011       C  0.65238177  0.39636778  0.98172106     0.36300
C2012       C  0.54616275  0.37462283  0.02576490     0.39900
C2013       C  0.61153419  0.43052337  0.95393580     0.39100
C2014       C  0.58534310  0.33547007  0.03379838     0.36000
C2015       C  0.63498340  0.36990011  0.09260965     0.36700
C2016       C  0.68215674  0.29454127  0.98710720     0.39900
N2017       N  0.61664140  0.44802417  0.93335955    -0.38100
N2018       N  0.67424505  0.40098200  0.97530142    -0.39700
N2019       N  0.52544684  0.36958949  0.03768123    -0.37500
N2020       N  0.58007243  0.31475367  0.04548884    -0.39900
N2021       N  0.63644757  0.32963792  0.92440418    -0.39600
N2022       N  0.69235579  0.27986849  0.96553983    -0.37300
N2023       N  0.67744872  0.33316167  0.15713644    -0.38300
N2024       N  0.62572571  0.38575105  0.11323599    -0.40000
C2025       C  0.83121188  0.34430098  0.00968131    -0.04900
C2026       C  0.84771078  0.35726360  0.03740556     0.09200
C2027       C  0.84613285  0.35141928  0.07864762    -0.02300
C2028       C  0.82761886  0.33297634  0.09214773    -0.00600
C2029       C  0.81184301  0.31928323  0.06421139    -0.04200
C2030       C  0.81368430  0.32497896  0.02291813     0.02800
C2031       C  0.86618456  0.37777474  0.02327171     0.09700
C2032       C  0.86365787  0.36428456  0.10702644     0.35600
C2033       C  0.79666464  0.31179934  0.99413447     0.39000
C2034       C  0.86093610  0.40444242  0.03160892    -0.04500
C2035       C  0.87959416  0.42372830  0.02198518     0.02600
C2036       C  0.90360159  0.41626867  0.00317710    -0.04100
C2037       C  0.90681295  0.38994177  0.98979668    -0.00400
C2038       C  0.88853783  0.37064565  0.00088036    -0.02900
C2039       C  0.83612374  0.41200172  0.04987153     0.36300
C2040       C  0.92864613  0.38255172  0.96414804     0.39900
C2041       C  0.87370074  0.45095602  0.03215590     0.39100
C2042       C  0.89273278  0.34340429  0.98918973     0.36000
C2043       C  0.83208487  0.35110465  0.96754687     0.36700
C2044       C  0.82418239  0.32855724  0.13465507     0.39900
N2045       N  0.86858152  0.47257027  0.04013159    -0.38100
N2046       N  0.81629173  0.41808891  0.06412106    -0.39700
N2047       N  0.94597710  0.37654173  0.94366481    -0.37500
N2048       N  0.89587337  0.32175230  0.97935032    -0.39900
N2049       N  0.87773027  0.37448459  0.12958065    -0.39600
N2050       N  0.82115203  0.32510320  0.16853197    -0.37300
N2051       N  0.78285296  0.30172028  0.97109150    -0.38300
N2052       N  0.83297494  0.35645324  0.93395478    -0.40000
C2053       C  0.85313583  0.16773020  0.02771908    -0.04900
C2054       C  0.85721089  0.14736212  0.05553625     0.09200
C2055       C  0.84236955  0.14638051  0.09097257    -0.02300
C2056       C  0.82339742  0.16585206  0.09876791    -0.00600
C2057       C  0.81904385  0.18602735  0.07069912    -0.04200
C2058       C  0.83388632  0.18696158  0.03511800     0.02800
C2059       C  0.87660181  0.12636459  0.04650892     0.09700
C2060       C  0.84612726  0.12485691  0.11862274     0.35600
C2061       C  0.82875537  0.20725831  0.00565512     0.39000
C2062       C  0.90293231  0.12937080  0.05853465    -0.04500
C2063       C  0.92174631  0.11033369  0.04763349     0.02600
C2064       C  0.91425254  0.08812723  0.02402473    -0.04100
C2065       C  0.88761548  0.08571484  0.01138917    -0.00400
C2066       C  0.86877388  0.10427156  0.02397341    -0.02900
C2067       C  0.91057073  0.15203444  0.08263183     0.36300
C2068       C  0.87958446  0.06521289  0.98347192     0.39900
C2069       C  0.94865047  0.11416819  0.06109570     0.41300
C2070       C  0.84111717  0.10058427  0.01435749     0.36000
C2071       C  0.86828852  0.16844049  0.99102785     0.36700
C2072       C  0.80779360  0.16480928  0.13498340     0.39900
N2073       N  0.96994807  0.11821101  0.07181555    -0.38100
N2074       N  0.91676306  0.16999205  0.10193523    -0.39700
N2075       N  0.87298416  0.04918224  0.96082060    -0.37500
N2076       N  0.81896341  0.09770366  0.00746940    -0.39900
N2077       N  0.84911144  0.10752871  0.14045923    -0.39600
N2078       N  0.79519319  0.16401406  0.16371381    -0.37300
N2079       N  0.82462658  0.22350494  0.98229271    -0.38300
N2080       N  0.88030865  0.16899368  0.96171030    -0.40000
C2081       C  0.63375646  0.09349517  0.01490221    -0.04900
C2082       C  0.62613168  0.11950032  0.02367462     0.09200
C2083       C  0.59961888  0.12703271  0.01991254    -0.02300
C2084       C  0.58042578  0.10825460  0.00972120    -0.00600
C2085       C  0.58737387  0.08106455  0.00608484    -0.04200
C2086       C  0.61458798  0.07417133  0.00679489     0.02800
C2087       C  0.64632831  0.13961633  0.03380595     0.09700
C2088       C  0.59214661  0.15443974  0.02547946     0.35600
C2089       C  0.62349801  0.04769856  0.99730090     0.39000
C2090       C  0.65460842  0.15734131  0.00412879    -0.04500
C2091       C  0.67258719  0.17734163  0.01389567     0.02600
C2092       C  0.68297486  0.17911229  0.05304828    -0.04100
C2093       C  0.67562701  0.16067911  0.08230060    -0.00400
C2094       C  0.65678926  0.14129207  0.07298333    -0.02900
C2095       C  0.64445450  0.15498591  0.96358887     0.36300
C2096       C  0.68770380  0.16168886  0.12173132     0.39900
C2097       C  0.68048718  0.19608267  0.98368190     0.39100
C2098       C  0.64773226  0.12353660  0.10382815     0.36000
C2099       C  0.66152893  0.08699665  0.01216564     0.36700
C2100       C  0.55382970  0.11764895  0.00202131     0.39900
N2101       N  0.68668280  0.21108344  0.95957933    -0.38100
N2102       N  0.63625558  0.15300880  0.93133608    -0.39700
N2103       N  0.69776147  0.16257599  0.15286918    -0.37500
N2104       N  0.64044930  0.10956796  0.12865987    -0.39900
N2105       N  0.58606588  0.17626513  0.02940126    -0.39600
N2106       N  0.53270192  0.12517240  0.99566828    -0.37300
N2107       N  0.63076656  0.02675133  0.98910557    -0.38300
N2108       N  0.68363455  0.08187788  0.00915672    -0.40000
C2109       C  0.86728814  0.03372863  0.83938833    -0.04900
C2110       C  0.84869097  0.01294180  0.84127542     0.09200
C2111       C  0.85593212  0.48959197  0.86205282    -0.02300
C2112       C  0.88137017  0.48686110  0.87904020    -0.00600
C2113       C  0.90022677  0.00740966  0.87627022    -0.04200
C2114       C  0.89278202  0.03104043  0.85693197     0.02800
C2115       C  0.82227666  0.01442106  0.81935995     0.09700
C2116       C  0.83699196  0.46854696  0.86688053     0.35600
C2117       C  0.91079024  0.05312602  0.85687911     0.39000
C2118       C  0.82153426  0.01342699  0.77738892    -0.04500
C2119       C  0.79733356  0.01101261  0.75624034     0.02600
C2120       C  0.77210333  0.00953012  0.77647351    -0.04100
C2121       C  0.77348871  0.01166651  0.81959973    -0.00400
C2122       C  0.79814704  0.01427829  0.84010957    -0.02900
C2123       C  0.84629412  0.01312018  0.75565374     0.36300
C2124       C  0.75031782  0.51212053  0.84435169     0.39900
C2125       C  0.79969562  0.00598892  0.71354108     0.39100
C2126       C  0.79878359  0.01682158  0.88345200     0.36000
C2127       C  0.85981406  0.05826658  0.82046385     0.36700
C2128       C  0.88803285  0.46277597  0.89990762     0.39900
N2129       N  0.80339380  0.00101540  0.68018055    -0.38100
N2130       N  0.86605122  0.01292632  0.73855851    -0.39700
N2131       N  0.73267958  0.51316623  0.86614431    -0.37500
N2132       N  0.79884725  0.51881577  0.91798356    -0.39900
N2133       N  0.82187368  0.45189811  0.87187876    -0.39600
N2134       N  0.89300899  0.44347693  0.91653327    -0.37300
N2135       N  0.92496547  0.07092818  0.85688467    -0.38300
N2136       N  0.85377411  0.07779941  0.80526224    -0.40000
C2137       C  0.61802759  0.48444952  0.81568107    -0.04900
C2138       C  0.63743605  0.00326015  0.82711593     0.09200
C2139       C  0.63049464  0.02299309  0.85522400    -0.02300
C2140       C  0.60521660  0.02328008  0.87282604    -0.00600
C2141       C  0.58683930  0.00294429  0.86494062    -0.04200
C2142       C  0.59302382  0.48440446  0.83491428     0.02800
C2143       C  0.66436077  0.00392085  0.80717196     0.09700
C2144       C  0.64932781  0.04340578  0.86565999     0.35600
C2145       C  0.57323263  0.46545156  0.82296321     0.39000
C2146       C  0.67059370  0.02443725  0.78119784    -0.04500
C2147       C  0.69594774  0.02648328  0.76353738     0.02600
C2148       C  0.71714556  0.00764921  0.77187218    -0.04100
C2149       C  0.70953489  0.48532735  0.79662969    -0.00400
C2150       C  0.68403406  0.48391864  0.81445186    -0.02900
C2151       C  0.64980731  0.04318479  0.77103705     0.36300
C2152       C  0.72745708  0.46412462  0.80664816     0.39900
C2153       C  0.69705030  0.04690553  0.73350714     0.39100
C2154       C  0.67757260  0.46251530  0.84126743     0.36000
C2155       C  0.62321143  0.46608933  0.78331080     0.36700
C2156       C  0.59743845  0.04563284  0.89717069     0.39900
N2157       N  0.69597924  0.06356498  0.71010503    -0.38100
N2158       N  0.63331171  0.05803983  0.76309789    -0.39700
N2159       N  0.74031975  0.44668571  0.81735575    -0.37500
N2160       N  0.67228181  0.44547340  0.86258685    -0.39900
N2161       N  0.66430157  0.05982186  0.87340784    -0.39600
N2162       N  0.59117372  0.06403005  0.91533098    -0.37300
N2163       N  0.55740019  0.45045744  0.81284474    -0.38300
N2164       N  0.62729040  0.45146962  0.75736737    -0.40000
C2165       C  0.98117295  0.17542289  0.78686159    -0.04900
C2166       C  0.50057718  0.16844821  0.81456461     0.09200
C2167       C  0.52156821  0.18579419  0.82110018    -0.02300
C2168       C  0.52322448  0.21026669  0.80040469    -0.00600
C2169       C  0.50271967  0.21925387  0.77329000    -0.04200
C2170       C  0.98279786  0.19923532  0.76486531     0.02800
C2171       C  0.49919273  0.14218964  0.83585921     0.09700
C2172       C  0.54155495  0.17832560  0.85025761     0.35600
C2173       C  0.96542238  0.19964002  0.73039735     0.39000
C2174       C  0.51445570  0.12040379  0.82293515    -0.04500
C2175       C  0.51336131  0.09598447  0.84347637     0.02600
C2176       C  0.49641250  0.09286188  0.87666453    -0.04100
C2177       C  0.98023935  0.11446604  0.88812747    -0.00400
C2178       C  0.98176912  0.13885114  0.86811937    -0.02900
C2179       C  0.53111473  0.12314058  0.78811441     0.36300
C2180       C  0.96151110  0.11175501  0.92044623     0.39900
C2181       C  0.53058883  0.07459757  0.83147432     0.39100
C2182       C  0.96514605  0.16061527  0.88069871     0.36000
C2183       C  0.95970991  0.15698471  0.77960903     0.36700
C2184       C  0.54709577  0.22493025  0.80809724     0.39900
N2185       N  0.54447343  0.05764565  0.82181576    -0.38100
N2186       N  0.54424691  0.12539622  0.76014084    -0.39700
N2187       N  0.94642035  0.11005255  0.94609122    -0.37500
N2188       N  0.95168720  0.17781209  0.89071563    -0.39900
N2189       N  0.55728712  0.17223961  0.87362550    -0.39600
N2190       N  0.56721292  0.23408317  0.81661814    -0.37300
N2191       N  0.95128114  0.19844453  0.70323228    -0.38300
N2192       N  0.94265288  0.14235714  0.77390212    -0.40000
C2193       C  0.99679468  0.30193136  0.83761835    -0.04900
C2194       C  0.49763888  0.32550147  0.81559347     0.09200
C2195       C  0.50050536  0.32385937  0.77402785    -0.02300
C2196       C  0.50304787  0.29921531  0.75433323    -0.00600
C2197       C  0.50242014  0.27436718  0.77569873    -0.04200
C2198       C  0.99933528  0.27671546  0.81853829     0.02800
C2199       C  0.49626266  0.35247948  0.83556454     0.09700
C2200       C  0.50187894  0.34813770  0.75119998     0.35600
C2201       C  0.99856810  0.25413923  0.84467881     0.39000
C2202       C  0.51942148  0.36523523  0.84900935    -0.04500
C2203       C  0.51851294  0.39140836  0.86403168     0.02600
C2204       C  0.49444888  0.40544530  0.86622819    -0.04100
C2205       C  0.97136199  0.39285762  0.85199576    -0.00400
C2206       C  0.97219931  0.36649572  0.83736342    -0.02900
C2207       C  0.54423040  0.35115113  0.84927600     0.36300
C2208       C  0.94659053  0.40693545  0.85258634     0.39900
C2209       C  0.54250972  0.40377375  0.87835773     0.39100
C2210       C  0.94806440  0.35324127  0.82582429     0.36000
C2211       C  0.99309199  0.30379828  0.88058223     0.36700
C2212       C  0.50965368  0.30069399  0.71216573     0.39900
N2213       N  0.56174645  0.41355953  0.88954448    -0.38100
N2214       N  0.56435254  0.34049061  0.85063847    -0.39700
N2215       N  0.92667396  0.41799512  0.85218963    -0.37500
N2216       N  0.92881500  0.34244002  0.81715240    -0.39900
N2217       N  0.50310914  0.36734019  0.73284182    -0.39600
N2218       N  0.51569213  0.30408455  0.67923651    -0.37300
N2219       N  0.99726523  0.23713710  0.86752993    -0.38300
N2220       N  0.99002010  0.30527772  0.91482181    -0.40000
C2221       C  0.95250556  0.25910316  0.65909990    -0.04900
C2222       C  0.92838324  0.26064118  0.67978436     0.09200
C2223       C  0.92900553  0.25855129  0.72154288    -0.02300
C2224       C  0.95298001  0.25426393  0.74262612    -0.00600
C2225       C  0.97824461  0.25154687  0.72257263    -0.04200
C2226       C  0.97695747  0.25417620  0.67950590     0.02800
C2227       C  0.90178568  0.26149173  0.65813575     0.09700
C2228       C  0.90414308  0.25931583  0.74302545     0.35600
C2229       C  0.99990061  0.25221955  0.65423847     0.39000
C2230       C  0.89193293  0.23854059  0.63922585    -0.04500
C2231       C  0.86594711  0.23772625  0.62375377     0.02600
C2232       C  0.84900422  0.25982075  0.62636063    -0.04100
C2233       C  0.85873854  0.28294847  0.64491825    -0.00400
C2234       C  0.88494156  0.28385205  0.66049302    -0.02900
C2235       C  0.90861361  0.21555687  0.63463537     0.36300
C2236       C  0.84197919  0.30603807  0.64686795     0.39900
C2237       C  0.85671302  0.21379803  0.60455360     0.39100
C2238       C  0.89487042  0.30810732  0.67781012     0.36000
C2239       C  0.95208767  0.26300762  0.61607075     0.36700
C2240       C  0.94999145  0.24942480  0.78512637     0.39900
N2241       N  0.84970910  0.19441337  0.58972099    -0.38100
N2242       N  0.92141315  0.19697198  0.62967617    -0.39700
N2243       N  0.82842531  0.32435179  0.64843361    -0.37500
N2244       N  0.90274021  0.32758961  0.69137374    -0.39900
N2245       N  0.88426488  0.25986824  0.75977487    -0.39600
N2246       N  0.94527287  0.24512771  0.81830687    -0.37300
N2247       N  0.01716801  0.25136926  0.63175811    -0.38300
N2248       N  0.95188870  0.26626822  0.58181122    -0.40000
C2249       C  0.58007230  0.26287710  0.72050524    -0.04900
C2250       C  0.58549159  0.24406252  0.69108312     0.09200
C2251       C  0.56589078  0.22558026  0.68140757    -0.02300
C2252       C  0.54099939  0.22571096  0.70134436    -0.00600
C2253       C  0.53340843  0.24663163  0.72849516    -0.04200
C2254       C  0.55521100  0.26404074  0.73960907     0.02800
C2255       C  0.61161278  0.24531898  0.66920924     0.09700
C2256       C  0.57107606  0.20693954  0.64928674     0.35600
C2257       C  0.55527695  0.28114881  0.77449637     0.39000
C2258       C  0.63370245  0.23012077  0.68129346    -0.04500
C2259       C  0.65859674  0.23338947  0.66241831     0.02600
C2260       C  0.66176288  0.25228425  0.63181444    -0.04100
C2261       C  0.64010327  0.26882680  0.62238688    -0.00400
C2262       C  0.61525279  0.26499284  0.64016993    -0.02900
C2263       C  0.63089198  0.21152379  0.71370165     0.36300
C2264       C  0.64355575  0.29072069  0.59528124     0.39900
C2265       C  0.68080642  0.21722283  0.67426685     0.39100
C2266       C  0.59330533  0.28187182  0.62927946     0.36000
C2267       C  0.60096248  0.28115548  0.73189253     0.36700
C2268       C  0.52392809  0.20354912  0.69294075     0.39900
N2269       N  0.69862226  0.20448317  0.68394580    -0.38100
N2270       N  0.62867103  0.19679537  0.73976732    -0.39700
N2271       N  0.64605350  0.30853538  0.57425337    -0.37500
N2272       N  0.57573202  0.29533608  0.62099999    -0.39900
N2273       N  0.57514760  0.19243705  0.62318465    -0.39600
N2274       N  0.51190168  0.18498118  0.68456714    -0.37300
N2275       N  0.55694307  0.29446264  0.80257449    -0.38300
N2276       N  0.61752146  0.29564163  0.74097206    -0.40000
C2277       C  0.73208513  0.12140802  0.64517240    -0.04900
C2278       C  0.75497676  0.11180453  0.66453634     0.09200
C2279       C  0.77669394  0.12914040  0.66949217    -0.02300
C2280       C  0.77564109  0.15525327  0.65453355    -0.00600
C2281       C  0.75324143  0.16422461  0.63352142    -0.04200
C2282       C  0.73125012  0.14733354  0.63003902     0.02800
C2283       C  0.75479367  0.08487175  0.68423476     0.09700
C2284       C  0.80029688  0.12006987  0.68977786     0.35600
C2285       C  0.70741372  0.15680881  0.61085746     0.39000
C2286       C  0.75331797  0.06126291  0.66184188    -0.04500
C2287       C  0.75069251  0.03622066  0.68086359     0.02600
C2288       C  0.74892614  0.03405018  0.72389923    -0.04100
C2289       C  0.75102480  0.05888119  0.74562229    -0.00400
C2290       C  0.75378033  0.08337160  0.72602021    -0.02900
C2291       C  0.75369439  0.06289118  0.61841934     0.36300
C2292       C  0.74633699  0.06093720  0.78834321     0.39900
C2293       C  0.75007153  0.01368611  0.65422328     0.39100
C2294       C  0.75297834  0.10778519  0.74915147     0.36000
C2295       C  0.70924293  0.10463591  0.64008328     0.36700
C2296       C  0.79767510  0.17288923  0.66056463     0.39900
N2297       N  0.75108037  0.49683882  0.63062347    -0.38100
N2298       N  0.75348165  0.06408938  0.58382972    -0.39700
N2299       N  0.74210302  0.06529102  0.82174183    -0.37500
N2300       N  0.75211934  0.12717405  0.76746341    -0.39900
N2301       N  0.81910808  0.11302014  0.70622772    -0.39600
N2302       N  0.81511058  0.18707916  0.66609183    -0.37300
N2303       N  0.68818482  0.16431041  0.59615292    -0.38300
N2304       N  0.69090253  0.09155795  0.63495039    -0.40000
C2305       C  0.72776848  0.38132150  0.66784056    -0.04900
C2306       C  0.74567075  0.40193485  0.65944371     0.09200
C2307       C  0.76632134  0.39689398  0.63216111    -0.02300
C2308       C  0.76942482  0.37169925  0.61445896    -0.00600
C2309       C  0.75137985  0.35112806  0.62244111    -0.04200
C2310       C  0.73050486  0.35619272  0.64927328     0.02800
C2311       C  0.74494592  0.42793827  0.68242109     0.09700
C2312       C  0.78450078  0.41783415  0.62211092     0.35600
C2313       C  0.71114633  0.33586967  0.65649653     0.39000
C2314       C  0.76464013  0.43338695  0.71064112    -0.04500
C2315       C  0.76509801  0.45750212  0.73247960     0.02600
C2316       C  0.74632571  0.47882343  0.72488039    -0.04100
C2317       C  0.72505846  0.47125649  0.69814308    -0.00400
C2318       C  0.72489406  0.44668888  0.67696063    -0.02900
C2319       C  0.78416054  0.41293737  0.71875634     0.36300
C2320       C  0.70262442  0.48820838  0.69070285     0.39900
C2321       C  0.78387563  0.45718216  0.76528434     0.39100
C2322       C  0.70374627  0.44057350  0.64901051     0.36000
C2323       C  0.70621454  0.38604432  0.69519660     0.36700
C2324       C  0.79164852  0.36697319  0.58824895     0.39900
N2325       N  0.79918067  0.45518954  0.79084365    -0.38100
N2326       N  0.79959623  0.39668034  0.72509585    -0.39700
N2327       N  0.68388427  0.50004089  0.68253420    -0.37500
N2328       N  0.68673944  0.43557317  0.62710432    -0.39900
N2329       N  0.79905785  0.43446728  0.61412651    -0.39600
N2330       N  0.80960726  0.36358385  0.56768641    -0.37300
N2331       N  0.69568131  0.31963137  0.66212186    -0.38300
N2332       N  0.68875894  0.38992136  0.71657023    -0.40000
C2333       C  0.91356749  0.09531198  0.49953584    -0.04900
C2334       C  0.89780724  0.10883403  0.47163407     0.09200
C2335       C  0.89859664  0.10210213  0.43059708    -0.02300
C2336       C  0.91666289  0.08310344  0.41708876    -0.00600
C2337       C  0.93307384  0.07015555  0.44492223    -0.04200
C2338       C  0.93045068  0.07527859  0.48633317     0.02800
C2339       C  0.88046887  0.13043542  0.48539365     0.09700
C2340       C  0.88067528  0.11458159  0.40248842     0.35600
C2341       C  0.94513873  0.05990376  0.51535449     0.39000
C2342       C  0.88734507  0.15665985  0.47728741    -0.04500
C2343       C  0.86935722  0.17700199  0.48526583     0.02600
C2344       C  0.84488568  0.17110472  0.50355973    -0.04100
C2345       C  0.84017378  0.14516438  0.51733104    -0.00400
C2346       C  0.85722835  0.12468384  0.50622572    -0.02900
C2347       C  0.91284594  0.16255174  0.46007046     0.36300
C2348       C  0.81777200  0.13927308  0.54259479     0.39900
C2349       C  0.87609526  0.20355862  0.47318844     0.39100
C2350       C  0.85039994  0.09756533  0.51479915     0.36000
C2351       C  0.91269418  0.10230765  0.54171000     0.36700
C2352       C  0.91783845  0.07629247  0.37489944     0.39900
N2353       N  0.88177727  0.22465037  0.46361205    -0.38100
N2354       N  0.93324498  0.16722508  0.44663131    -0.39700
N2355       N  0.80004180  0.13442829  0.56286478    -0.37500
N2356       N  0.84499607  0.07591007  0.52140896    -0.39900
N2357       N  0.86628485  0.12439506  0.38010379    -0.39600
N2358       N  0.91841216  0.07046796  0.34137064    -0.37300
N2359       N  0.95661533  0.04759478  0.53869967    -0.38300
N2360       N  0.91199329  0.10785534  0.57533691    -0.40000
C2361       C  0.65638830  0.11715865  0.47976336    -0.04900
C2362       C  0.63033336  0.12365561  0.48971554     0.09200
C2363       C  0.62489347  0.14719335  0.51034540    -0.02300
C2364       C  0.64516924  0.16543754  0.51779669    -0.00600
C2365       C  0.67087949  0.16081341  0.50262738    -0.04200
C2366       C  0.67654666  0.13592059  0.48470815     0.02800
C2367       C  0.60853259  0.10606558  0.47654625     0.09700
C2368       C  0.59834951  0.15250063  0.52399167     0.35600
C2369       C  0.70245842  0.12957744  0.46926501     0.39000
C2370       C  0.60065191  0.08499464  0.50084523    -0.04500
C2371       C  0.58106147  0.06755366  0.48719811     0.02600
C2372       C  0.57013726  0.07049672  0.44846820    -0.04100
C2373       C  0.57773044  0.09187656  0.42442726    -0.00400
C2374       C  0.59653633  0.10995953  0.43881126    -0.02900
C2375       C  0.61279444  0.08137485  0.53981538     0.36300
C2376       C  0.56591480  0.09533945  0.38518761     0.39900
C2377       C  0.57157526  0.04700491  0.51337077     0.39100
C2378       C  0.60329458  0.13280115  0.41514254     0.36000
C2379       C  0.66225546  0.09087503  0.46490265     0.36700
C2380       C  0.63925628  0.18903359  0.54081271     0.39900
N2381       N  0.56379290  0.03076888  0.53435548    -0.38100
N2382       N  0.62264736  0.07860186  0.57081436    -0.39700
N2383       N  0.55632642  0.09804520  0.35398155    -0.37500
N2384       N  0.60844021  0.15117814  0.39645363    -0.39900
N2385       N  0.57718918  0.15660190  0.53507621    -0.39600
N2386       N  0.63453491  0.20787263  0.55907400    -0.37300
N2387       N  0.72284788  0.12385846  0.45654758    -0.38300
N2388       N  0.66656757  0.06962329  0.45408007    -0.40000
C2389       C  0.59464323  0.41429194  0.48347072    -0.04900
C2390       C  0.60685495  0.39857715  0.45395934     0.09200
C2391       C  0.60081356  0.40251499  0.41307158    -0.02300
C2392       C  0.58272415  0.42226766  0.40181209    -0.00600
C2393       C  0.57035273  0.43773794  0.43144108    -0.04200
C2394       C  0.57642476  0.43378946  0.47226475     0.02800
C2395       C  0.62593017  0.37769207  0.46634283     0.09700
C2396       C  0.61295054  0.38599958  0.38275944     0.35600
C2397       C  0.56337576  0.44945766  0.50276394     0.39000
C2398       C  0.61827297  0.35108470  0.46611958    -0.04500
C2399       C  0.63650598  0.33120510  0.47640071     0.02600
C2400       C  0.66230783  0.33801614  0.48968580    -0.04100
C2401       C  0.66855111  0.36521359  0.49443509    -0.00400
C2402       C  0.65102107  0.38473167  0.48073259    -0.02900
C2403       C  0.59131586  0.34436002  0.45586763     0.36300
C2404       C  0.69246281  0.37355679  0.51484104     0.39900
C2405       C  0.62840655  0.30394500  0.47238393     0.39100
C2406       C  0.65872698  0.41225168  0.48148826     0.36000
C2407       C  0.60056689  0.40996490  0.52545910     0.36700
C2408       C  0.57682793  0.42678181  0.35989407     0.39900
N2409       N  0.62180434  0.28223948  0.46915456    -0.38100
N2410       N  0.56966038  0.33939563  0.44813744    -0.39700
N2411       N  0.71135464  0.38033140  0.53140711    -0.37500
N2412       N  0.66468133  0.43422786  0.48198030    -0.39900
N2413       N  0.62246331  0.37263290  0.35864925    -0.39600
N2414       N  0.57221867  0.43051652  0.32643975    -0.37300
N2415       N  0.55280619  0.46192509  0.52694657    -0.38300
N2416       N  0.60560019  0.40634032  0.55879798    -0.40000
C2417       C  0.84919517  0.38294293  0.44416349    -0.04900
C2418       C  0.87490834  0.38044039  0.45939474     0.09200
C2419       C  0.88115936  0.36016936  0.48638004    -0.02300
C2420       C  0.86166792  0.34222952  0.49808865    -0.00600
C2421       C  0.83557869  0.34478039  0.48323054    -0.04200
C2422       C  0.82923837  0.36613609  0.45760880     0.02800
C2423       C  0.89519184  0.40006268  0.44838339     0.09700
C2424       C  0.90798522  0.35723276  0.50083645     0.35600
C2425       C  0.80242011  0.37117112  0.44458413     0.39000
C2426       C  0.90181200  0.42019827  0.47578385    -0.04500
C2427       C  0.92094040  0.43887218  0.46565852     0.02600
C2428       C  0.93323791  0.43763483  0.42779204    -0.04100
C2429       C  0.92633480  0.41765650  0.40020850    -0.00400
C2430       C  0.90735591  0.39881607  0.41058270    -0.02900
C2431       C  0.88874345  0.42170175  0.51430020     0.36300
C2432       C  0.93882875  0.41650233  0.36131513     0.39900
C2433       C  0.92800725  0.45932315  0.49426996     0.39100
C2434       C  0.89992991  0.37833675  0.38233509     0.36000
C2435       C  0.84377704  0.40171075  0.41254819     0.36700
C2436       C  0.86859170  0.32143645  0.52590965     0.39900
N2437       N  0.93345715  0.47569271  0.51706105    -0.38100
N2438       N  0.87826111  0.42271853  0.54495332    -0.39700
N2439       N  0.94888197  0.41551749  0.33033453    -0.37500
N2440       N  0.89346391  0.36212282  0.35993160    -0.39900
N2441       N  0.92941154  0.35485537  0.51216518    -0.39600
N2442       N  0.87417876  0.30474923  0.54783171    -0.37300
N2443       N  0.78108702  0.37598070  0.43475243    -0.38300
N2444       N  0.84004865  0.41600487  0.38627346    -0.40000
C2445       C  0.61212620  0.23595510  0.36781605    -0.04900
C2446       C  0.60846123  0.25325734  0.33551037     0.09200
C2447       C  0.63017057  0.26818890  0.32204723    -0.02300
C2448       C  0.65508309  0.26638353  0.34163749    -0.00600
C2449       C  0.65869531  0.24913261  0.37440543    -0.04200
C2450       C  0.63704605  0.23332204  0.38617357     0.02800
C2451       C  0.58269490  0.25234758  0.31255905     0.09700
C2452       C  0.62680936  0.28535451  0.28791810     0.35600
C2453       C  0.64039890  0.21331405  0.41640072     0.39000
C2454       C  0.56292478  0.27134999  0.31776020    -0.04500
C2455       C  0.53807600  0.26904102  0.29794892     0.02600
C2456       C  0.53131389  0.24635930  0.27359181    -0.04100
C2457       C  0.55329598  0.22820134  0.26697632    -0.00400
C2458       C  0.57782671  0.23109089  0.28695988    -0.02900
C2459       C  0.56811503  0.29335823  0.34450620     0.36300
C2460       C  0.55398536  0.20792484  0.23629694     0.39900
C2461       C  0.51975758  0.29052796  0.30461993     0.39100
C2462       C  0.59911310  0.21226809  0.27998557     0.36000
C2463       C  0.59003580  0.22048928  0.38192049     0.36700
C2464       C  0.67671243  0.28264355  0.32844707     0.39900
N2465       N  0.00644569  0.30837984  0.31213753    -0.38100
N2466       N  0.57211168  0.31094336  0.36581368    -0.39700
N2467       N  0.55649888  0.19179413  0.21203547    -0.37500
N2468       N  0.61594424  0.19735994  0.27419486    -0.39900
N2469       N  0.62406402  0.29907308  0.26067107    -0.39600
N2470       N  0.69394899  0.29560995  0.31765437    -0.37300
N2471       N  0.64252433  0.19697544  0.44008659    -0.38300
N2472       N  0.57234718  0.20826073  0.39300994    -0.40000
C2473       C  0.89033900  0.26757219  0.35550978    -0.04900
C2474       C  0.89931794  0.24326549  0.33966857     0.09200
C2475       C  0.88222384  0.22126678  0.34169473    -0.02300
C2476       C  0.85675562  0.22357300  0.35907618    -0.00600
C2477       C  0.84777661  0.24795459  0.37467083    -0.04200
C2478       C  0.86501815  0.26981986  0.37295034     0.02800
C2479       C  0.92600028  0.24127544  0.31881461     0.09700
C2480       C  0.89117594  0.19600401  0.32656077     0.35600
C2481       C  0.85699180  0.29485588  0.39006349     0.39000
C2482       C  0.94995442  0.24332155  0.34013445    -0.04500
C2483       C  0.97485536  0.24359012  0.32012180     0.02600
C2484       C  0.97660163  0.24277726  0.27684990    -0.04100
C2485       C  0.95153048  0.23925067  0.25635716    -0.00400
C2486       C  0.92714556  0.23844144  0.27705824    -0.02900
C2487       C  0.94885922  0.24510467  0.38353285     0.36300
C2488       C  0.94927078  0.24068784  0.21310411     0.39900
C2489       C  0.99771871  0.24381022  0.34612972     0.39100
C2490       C  0.90256642  0.23687328  0.25461113     0.36000
C2491       C  0.90729257  0.29046034  0.35481720     0.36700
C2492       C  0.84029708  0.20046858  0.36255875     0.39900
N2493       N  0.51494697  0.24353070  0.36896613    -0.38100
N2494       N  0.94803238  0.24668416  0.41808077    -0.39700
N2495       N  0.94515071  0.24249672  0.17913009    -0.37500
N2496       N  0.88306982  0.23570070  0.23664245    -0.39900
N2497       N  0.89845319  0.17596377  0.31417601    -0.39600
N2498       N  0.82729749  0.18189787  0.36520638    -0.37300
N2499       N  0.85104760  0.31502855  0.40348876    -0.38300
N2500       N  0.92055808  0.30893950  0.35526516    -0.40000
C2501       C  0.72280396  0.38445210  0.35330285    -0.04900
C2502       C  0.74544874  0.39470307  0.33417314     0.09200
C2503       C  0.76771669  0.37789153  0.33028843    -0.02300
C2504       C  0.76744069  0.35183824  0.34579152    -0.00600
C2505       C  0.74521503  0.34215647  0.36613891    -0.04200
C2506       C  0.72254405  0.35833524  0.36818025     0.02800
C2507       C  0.74500976  0.42247972  0.31660884     0.09700
C2508       C  0.79156328  0.38738849  0.31181376     0.35600
C2509       C  0.69863961  0.34784689  0.38539790     0.39000
C2510       C  0.76065581  0.44327657  0.33208944    -0.04500
C2511       C  0.76145002  0.46841027  0.31264379     0.02600
C2512       C  0.74395631  0.47448615  0.27994503    -0.04100
C2513       C  0.72338395  0.45535287  0.27447525    -0.00400
C2514       C  0.72686853  0.42893527  0.28626459    -0.02900
C2515       C  0.77519252  0.43909703  0.36887319     0.36300
C2516       C  0.69618997  0.46285866  0.26825711     0.39900
C2517       C  0.78013939  0.48761688  0.32740300     0.39100
C2518       C  0.71077568  0.40863459  0.26770525     0.36000
C2519       C  0.69999680  0.40121619  0.35948339     0.36700
C2520       C  0.79046666  0.33519428  0.34171144     0.39900
N2521       N  0.79508062  0.50250481  0.34063663    -0.38100
N2522       N  0.78616618  0.43601848  0.39890280    -0.39700
N2523       N  0.67403113  0.46763419  0.26467434    -0.37500
N2524       N  0.69799201  0.39255094  0.25257288    -0.39900
N2525       N  0.81116744  0.39422855  0.29782686    -0.39600
N2526       N  0.80886066  0.32200050  0.33773609    -0.37300
N2527       N  0.67940036  0.33930645  0.39831602    -0.38300
N2528       N  0.68182778  0.41461402  0.36437396    -0.40000
C2529       C  0.77109186  0.10976112  0.36665391    -0.04900
C2530       C  0.75290956  0.10542710  0.33518450     0.09200
C2531       C  0.73540584  0.12623661  0.32515305    -0.02300
C2532       C  0.73601101  0.15071745  0.34642047    -0.00600
C2533       C  0.75475983  0.15525787  0.37725490    -0.04200
C2534       C  0.77251604  0.13446862  0.38650502     0.02800
C2535       C  0.75207299  0.07860957  0.31398648     0.09700
C2536       C  0.71609863  0.12226669  0.29369507     0.35600
C2537       C  0.79287126  0.13838565  0.41632199     0.39000
C2538       C  0.73202290  0.06033953  0.32205934    -0.04500
C2539       C  0.73204643  0.03455472  0.30452174     0.02600
C2540       C  0.75219296  0.02603866  0.27698196    -0.04100
C2541       C  0.77435851  0.04385484  0.27464405    -0.00400
C2542       C  0.77317723  0.07007752  0.29006012    -0.02900
C2543       C  0.71091523  0.06849680  0.34850842     0.36300
C2544       C  0.80054727  0.03527121  0.26395659     0.39900
C2545       C  0.71081354  0.01736479  0.31600274     0.39100
C2546       C  0.79459164  0.08831067  0.28230754     0.36000
C2547       C  0.78779400  0.08824117  0.37990300     0.36700
C2548       C  0.71622644  0.17055977  0.33808119     0.39900
N2549       N  0.69343572  0.00504116  0.32786634    -0.38100
N2550       N  0.69418296  0.07556253  0.36935903    -0.39700
N2551       N  0.82235753  0.03019197  0.25779731    -0.37500
N2552       N  0.81179898  0.10258744  0.27609547    -0.39900
N2553       N  0.70037578  0.11934740  0.26890307    -0.39600
N2554       N  0.70021297  0.18620796  0.33150613    -0.37300
N2555       N  0.80946290  0.14115186  0.43970105    -0.38300
N2556       N  0.80093853  0.07100634  0.39061393    -0.40000
O2557       O  0.75274033  0.70343338  0.38753831    -0.79600
O2558       O  0.75468472  0.71133562  0.61934890    -0.81100
O2559       O  0.79928241  0.68236624  0.50310156    -0.78200
O2560       O  0.71473919  0.67606511  0.50563557    -0.76500
O2561       O  0.68205366  0.70656724  0.50314900    -0.78300
O2562       O  0.82933382  0.71531872  0.50524800    -0.79300
O2563       O  0.75465004  0.68058855  0.56868482    -0.80600
O2564       O  0.75488638  0.67573264  0.44123628    -0.80900
Eu2565     Eu  0.75532677  0.70144226  0.50368607     2.39200
O2566       O  0.72900748  0.72770513  0.54570260    -0.88400
O2567       O  0.78019350  0.72717535  0.46000186    -0.92000
C2568       C  0.75398019  0.67992812  0.40318879     1.02700
C2569       C  0.75426273  0.68719382  0.60585704     1.02500
C2570       C  0.82309058  0.69088559  0.50429441     1.02500
C2571       C  0.69028852  0.68252065  0.50427334     1.00300
H2572       H  0.79243974  0.71949159  0.56094722     0.30100
O2573       O  0.78077572  0.72963101  0.54479650    -1.00800
H2574       H  0.71639707  0.71293704  0.44564298     0.30100
O2575       O  0.72741863  0.72501888  0.46074188    -1.03300
O2576       O  0.75254580  0.80343881  0.61356769    -0.80500
O2577       O  0.74939728  0.79540602  0.38221167    -0.80100
O2578       O  0.82924340  0.76030580  0.56295411    -0.78500
O2579       O  0.67924734  0.75095283  0.56794422    -0.81900
O2580       O  0.67741490  0.75110412  0.43975888    -0.79700
O2581       O  0.82891708  0.75215313  0.43838558    -0.78400
O2582       O  0.79196650  0.82970660  0.49375427    -0.79900
O2583       O  0.70695847  0.82494998  0.49454982    -0.81800
O2584       O  0.82471605  0.79921068  0.49247844    -0.78500
O2585       O  0.67646191  0.79283378  0.50103454    -0.81200
O2586       O  0.80080562  0.75913018  0.61600337    -0.77000
O2587       O  0.79927094  0.74854340  0.38663134    -0.77000
O2588       O  0.70594285  0.74973560  0.38681599    -0.76600
O2589       O  0.70922662  0.75433612  0.61923152    -0.80100
O2590       O  0.75126591  0.83110514  0.55955960    -0.79600
O2591       O  0.74675388  0.82623356  0.43254173    -0.77900
Eu2592     Eu  0.75429724  0.75640429  0.58722425     2.39800
Eu2593     Eu  0.75248863  0.75040941  0.41509136     2.39600
Eu2594     Eu  0.80485398  0.75607990  0.50057205     2.38400
Eu2595     Eu  0.70101468  0.75114832  0.50305093     2.39900
Eu2596     Eu  0.75073032  0.80543427  0.49782395     2.39800
O2597       O  0.72594121  0.77631041  0.45857096    -0.92300
O2598       O  0.77865833  0.78261103  0.54189231    -0.91200
C2599       C  0.75185601  0.82681024  0.59747814     1.02900
C2600       C  0.74695118  0.81956600  0.39531680     1.01600
C2601       C  0.82438143  0.76030610  0.60065931     1.01000
C2602       C  0.68525353  0.75244224  0.60539222     1.03000
C2603       C  0.68230891  0.75019891  0.40202254     1.01900
C2604       C  0.82326460  0.74951990  0.40106121     1.00800
C2605       C  0.81632746  0.82306844  0.49099951     1.00800
C2606       C  0.68295809  0.81714935  0.49667921     1.03400
H2607       H  0.78814072  0.79050140  0.43897470     0.30800
O2608       O  0.77764034  0.77946601  0.45611184    -1.04500
H2609       H  0.71469815  0.79127311  0.55817854     0.32900
O2610       O  0.72616484  0.78007400  0.54296286    -1.07000
N2611       N  0.50207367  0.96395044  0.41448455    -0.36100
N2612       N  0.54157947  0.50481567  0.42197282    -0.56600
N2613       N  0.50103992  0.54543658  0.42445127    -0.36100
N2614       N  0.96127954  0.50461355  0.41722550    -0.56600
C2615       C  0.52348256  0.94902232  0.42278282     0.27500
C2616       C  0.98068108  0.94902074  0.42218956     0.27500
C2617       C  0.52206825  0.55955599  0.43712341     0.27500
C2618       C  0.97930887  0.55954716  0.43384679     0.27500
C2619       C  0.55801095  0.98365746  0.41724506     0.36100
C2620       C  0.55721884  0.52623494  0.42392545     0.36100
C2621       C  0.94597292  0.98348867  0.41452910     0.36100
C2622       C  0.94512478  0.52570684  0.41775340     0.36100
C2623       C  0.51558270  0.92396825  0.43373393    -0.21300
C2624       C  0.98863297  0.92400995  0.43357618    -0.21300
C2625       C  0.51366175  0.58341763  0.45289625    -0.21300
C2626       C  0.98677029  0.58355470  0.45041778    -0.21300
C2627       C  0.58394452  0.99170274  0.41387091    -0.22400
C2628       C  0.58333833  0.51894758  0.41929141    -0.22400
C2629       C  0.91989782  0.99130825  0.41133885    -0.22400
C2630       C  0.91925034  0.51785990  0.41193829    -0.22400
C2631       C  0.55002901  0.95729241  0.42166620    -0.17700
C2632       C  0.95410777  0.95722393  0.42000788    -0.17700
C2633       C  0.95284892  0.55130773  0.42907124    -0.17700
C2634       C  0.54872678  0.55169851  0.43510329    -0.17700
H2635       H  0.52792621  0.90745020  0.44194172     0.15200
H2636       H  0.97634043  0.90753572  0.44171358     0.15200
H2637       H  0.52560622  0.59907279  0.46540571     0.15200
H2638       H  0.97419983  0.59942971  0.46059265     0.15200
H2639       H  0.60122664  0.97938063  0.41075366     0.13500
H2640       H  0.60048145  0.53153709  0.42072120     0.13400
H2641       H  0.90269615  0.97887597  0.40864926     0.13500
H2642       H  0.90167934  0.52990513  0.41269062     0.13400
H2643       H  0.50209884  0.98270293  0.40234614     0.26700
H2644       H  0.50154141  0.52788517  0.40848571     0.26700
O2645       O  0.49318824  0.95289354  0.88108047    -0.79600
O2646       O  0.50078742  0.94689068  0.11193567    -0.81100
O2647       O  0.53521598  0.92053415  0.98932585    -0.78200
O2648       O  0.94997307  0.92622337  0.99983074    -0.76500
O2649       O  0.92037564  0.95967069  0.99820172    -0.78300
O2650       O  0.56840759  0.95035880  0.99316800    -0.79300
O2651       O  0.49732299  0.91934850  0.05770762    -0.80600
O2652       O  0.49222895  0.92236367  0.93148673    -0.80900
Eu2653     Eu  0.49420493  0.94480985  0.99571630     2.39200
O2654       O  0.97049815  0.97090723  0.04102945    -0.88400
O2655       O  0.52059094  0.97033353  0.95314824    -0.92000
C2656       C  0.49263297  0.92870149  0.89431133     1.02700
C2657       C  0.49963661  0.92346789  0.09569755     1.02500
C2658       C  0.55972395  0.92657369  0.99097824     1.02500
C2659       C  0.92623839  0.93517948  0.99956155     1.00300
H2660       H  0.53461253  0.95613780  0.05194698     0.30100
O2661       O  0.52321279  0.96819545  0.03775428    -1.00800
H2662       H  0.95602307  0.96284112  0.94016785     0.30100
O2663       O  0.96819777  0.97298669  0.95605572    -1.03300
O2664       O  0.50205342  0.53821434  0.11906125    -0.80500
O2665       O  0.49584262  0.54546391  0.88677724    -0.80100
O2666       O  0.57308407  0.99496996  0.05788526    -0.78500
O2667       O  0.92237242  0.99708810  0.06495381    -0.81900
O2668       O  0.92009076  0.50512098  0.93996611    -0.79700
O2669       O  0.57070526  0.49743051  0.93075600    -0.78400
O2670       O  0.54221738  0.56821480  0.00612300    -0.79900
O2671       O  0.95790215  0.57297547  0.01125756    -0.81800
O2672       O  0.57275654  0.53610740  0.00051613    -0.78500
O2673       O  0.92492268  0.54301103  0.01265809    -0.81200
O2674       O  0.54666577  0.99281562  0.11247321    -0.77000
O2675       O  0.53993040  0.49990139  0.88044282    -0.77000
O2676       O  0.94795672  0.50391885  0.88614381    -0.76600
O2677       O  0.95302431  0.99346875  0.11540341    -0.80100
O2678       O  0.50368238  0.56919971  0.06941994    -0.79600
O2679       O  0.49845763  0.57330163  0.94094017    -0.77900
Eu2680     Eu  0.49941046  0.99372591  0.08525456     2.39800
Eu2681     Eu  0.49465073  0.49894678  0.91310884     2.39600
Eu2682     Eu  0.54872331  0.49433252  0.99552859     2.38400
Eu2683     Eu  0.94500146  0.49992278  0.00182590     2.39900
Eu2684     Eu  0.49898075  0.54854078  0.00347544     2.39800
O2685       O  0.97085140  0.52567281  0.95959471    -0.92300
O2686       O  0.52466035  0.51957106  0.04143362    -0.91200
C2687       C  0.50388501  0.56240120  0.10653613     1.02900
C2688       C  0.49699648  0.56885688  0.90294952     1.01600
C2689       C  0.56993636  0.99360696  0.09591537     1.01000
C2690       C  0.92877738  0.99490565  0.10201535     1.03000
C2691       C  0.92460146  0.50570448  0.90212847     1.01900
C2692       C  0.56420611  0.49959798  0.89356740     1.00800
C2693       C  0.56620769  0.56048860  0.00450186     1.00800
C2694       C  0.93354141  0.56674213  0.01518132     1.03400
H2695       H  0.53408840  0.53436252  0.94190930     0.30800
O2696       O  0.52275917  0.52292028  0.95723161    -1.04500
H2697       H  0.96299064  0.53374512  0.06356344     0.32900
O2698       O  0.97315405  0.52263064  0.04573897    -1.07000
N2699       N  0.74940184  0.70958697  0.07617447    -0.36100
N2700       N  0.78732344  0.75205376  0.08261961    -0.56600
N2701       N  0.74491117  0.79074744  0.08150662    -0.36100
N2702       N  0.70711339  0.74795333  0.07324789    -0.56600
C2703       C  0.77196656  0.69630262  0.06913876     0.27500
C2704       C  0.72948880  0.69415990  0.06301820     0.27500
C2705       C  0.76570329  0.80665947  0.07462928     0.27500
C2706       C  0.72300501  0.80462745  0.07214776     0.27500
C2707       C  0.80408728  0.73163182  0.08661665     0.36100
C2708       C  0.80201554  0.77406199  0.08501974     0.36100
C2709       C  0.69246195  0.72583936  0.07202448     0.36100
C2710       C  0.69003087  0.76826676  0.07541978     0.36100
C2711       C  0.76627221  0.67191951  0.05227588    -0.21300
C2712       C  0.73945783  0.67056804  0.04845326    -0.21300
C2713       C  0.75676731  0.83139536  0.06349595    -0.21300
C2714       C  0.72990555  0.83007906  0.06173472    -0.21300
C2715       C  0.82950978  0.74068800  0.09282715    -0.22400
C2716       C  0.82826632  0.76758603  0.09110250    -0.22400
C2717       C  0.66592832  0.73209782  0.07384721    -0.22400
C2718       C  0.66438807  0.75901467  0.07589643    -0.22400
C2719       C  0.79763602  0.70527271  0.07785932    -0.17700
C2720       C  0.70246285  0.70037873  0.06456889    -0.17700
C2721       C  0.69694110  0.79495988  0.07104121    -0.17700
C2722       C  0.79261701  0.79955942  0.07656388    -0.17700
H2723       H  0.78000470  0.65668523  0.04334869     0.15200
H2724       H  0.72856843  0.65410028  0.03611798     0.15200
H2725       H  0.76839565  0.84853712  0.05630099     0.15200
H2726       H  0.71700089  0.84597502  0.05272842     0.15200
H2727       H  0.84733820  0.72911447  0.09553303     0.13500
H2728       H  0.84496567  0.78072723  0.09263666     0.13400
H2729       H  0.64938681  0.71873862  0.07218039     0.13500
H2730       H  0.64643387  0.77052455  0.07606171     0.13400
H2731       H  0.74760923  0.72700599  0.09231233     0.26700
H2732       H  0.74552284  0.77186916  0.09302800     0.26700
C2733       C  0.50294682  0.74434649  0.25091716    -0.01900
C2734       C  0.74846990  0.49910128  0.24985973    -0.01900
C2735       C  0.50443911  0.74757559  0.75039314    -0.01900
C2736       C  0.74566295  0.00727071  0.74937695    -0.01900
C2737       C  0.69132311  0.97756158  0.17788400    -0.04900
C2738       C  0.67273080  0.99813257  0.18187775     0.09200
C2739       C  0.68053087  0.52198716  0.20075148    -0.02300
C2740       C  0.70613830  0.52390961  0.21794028    -0.00600
C2741       C  0.72407433  0.00140111  0.22030290    -0.04200
C2742       C  0.71721226  0.98000477  0.19389079     0.02800
C2743       C  0.64592172  0.99642075  0.16125280     0.09700
C2744       C  0.66310955  0.54469574  0.20094817     0.35600
C2745       C  0.73589915  0.95951661  0.18361954     0.39000
C2746       C  0.62127623  0.49795483  0.18314417    -0.04500
C2747       C  0.59643216  0.49712460  0.16288632     0.02600
C2748       C  0.59573094  0.99304390  0.12015244    -0.04100
C2749       C  0.62028802  0.98913345  0.09987663    -0.00400
C2750       C  0.64462587  0.99341190  0.11938397    -0.02900
C2751       C  0.62225554  0.49960510  0.22645589     0.36300
C2752       C  0.62145007  0.97858048  0.05946849     0.39900
C2753       C  0.57259208  0.50051188  0.18591155     0.39100
C2754       C  0.66859115  0.99474900  0.09582617     0.36000
C2755       C  0.68307710  0.95273229  0.16006167     0.36700
C2756       C  0.71571539  0.55040799  0.22458019     0.39900
N2757       N  0.55373411  0.50327119  0.20478105    -0.38100
N2758       N  0.62318445  0.50089578  0.26103542    -0.39700
N2759       N  0.62293372  0.96977810  0.02755230    -0.37500
N2760       N  0.68762904  0.99578898  0.07702234    -0.39900
N2761       N  0.64913139  0.56270874  0.20127802    -0.39600
N2762       N  0.72309629  0.57185287  0.22765296    -0.37300
N2763       N  0.74987903  0.94285414  0.17319585    -0.38300
N2764       N  0.67633534  0.93290467  0.14624554    -0.40000
C2765       C  0.86762430  0.51708662  0.16165479    -0.04900
C2766       C  0.85439475  0.99347354  0.16719256     0.09200
C2767       C  0.86613318  0.96994582  0.15239683    -0.02300
C2768       C  0.89176958  0.97016368  0.13537179    -0.00600
C2769       C  0.90549052  0.99408713  0.12977441    -0.04200
C2770       C  0.89205368  0.51770645  0.14114064     0.02800
C2771       C  0.82673585  0.99338214  0.18547195     0.09700
C2772       C  0.85121086  0.94563669  0.15238486     0.35600
C2773       C  0.90217069  0.54277255  0.12764059     0.39000
C2774       C  0.80589903  0.00849162  0.16906776    -0.04500
C2775       C  0.78093117  0.01026760  0.18856034     0.02600
C2776       C  0.77477759  0.99436895  0.22295607    -0.04100
C2777       C  0.79354326  0.47433658  0.23087523    -0.00400
C2778       C  0.81982639  0.47683594  0.21764129    -0.02900
C2779       C  0.81023315  0.02286181  0.13220007     0.36300
C2780       C  0.78598500  0.44765091  0.23950247     0.39900
C2781       C  0.76192543  0.02792779  0.17069173     0.39100
C2782       C  0.84042075  0.46280705  0.23891761     0.36000
C2783       C  0.85637135  0.54146327  0.17651641     0.36700
C2784       C  0.90318545  0.94586741  0.12047225     0.39900
N2785       N  0.74790340  0.04188990  0.15348756    -0.38100
N2786       N  0.81362617  0.03468037  0.10316746    -0.39700
N2787       N  0.78052323  0.42573298  0.24321974    -0.37500
N2788       N  0.85677131  0.45173737  0.25626712    -0.39900
N2789       N  0.83918858  0.92631547  0.15256930    -0.39600
N2790       N  0.91222994  0.92652461  0.10828383    -0.37300
N2791       N  0.90958704  0.56285411  0.11610253    -0.38300
N2792       N  0.84694381  0.56077351  0.18814310    -0.40000
C2793       C  0.52590300  0.80397177  0.17977195    -0.04900
C2794       C  0.50602714  0.82296930  0.18405130     0.09200
C2795       C  0.98546363  0.81765645  0.21030138    -0.02300
C2796       C  0.98344854  0.79307513  0.23036907    -0.00600
C2797       C  0.50262102  0.77178145  0.22503272    -0.04200
C2798       C  0.52467875  0.77919192  0.19994194     0.02800
C2799       C  0.50580165  0.84867712  0.16060756     0.09700
C2800       C  0.96676622  0.83888436  0.21846594     0.35600
C2801       C  0.54687629  0.76189218  0.19280925     0.39000
C2802       C  0.98629357  0.85277104  0.13102048    -0.04500
C2803       C  0.98333332  0.87759681  0.11243649     0.02600
C2804       C  0.50078793  0.89874850  0.12107474    -0.04100
C2805       C  0.52074756  0.89445248  0.15022604    -0.00400
C2806       C  0.52269290  0.86990407  0.17062036    -0.02900
C2807       C  0.96881283  0.83129232  0.12000604     0.36300
C2808       C  0.54013645  0.91470247  0.15810970     0.39900
C2809       C  0.96163807  0.88129118  0.08479006     0.39100
C2810       C  0.54176517  0.86659675  0.20259802     0.36000
C2811       C  0.54828845  0.81037717  0.15480920     0.36700
C2812       C  0.96223211  0.79297748  0.25897471     0.39900
N2813       N  0.94411650  0.88378741  0.06296219    -0.38100
N2814       N  0.95484725  0.81418798  0.11137225    -0.39700
N2815       N  0.55594576  0.93057133  0.16445855    -0.37500
N2816       N  0.55686989  0.86382223  0.22827871    -0.39900
N2817       N  0.95214086  0.85583327  0.22510338    -0.39600
N2818       N  0.94478813  0.79520380  0.28081146    -0.37300
N2819       N  0.56550034  0.75001370  0.18425040    -0.38300
N2820       N  0.56632877  0.81570684  0.13550714    -0.40000
C2821       C  0.00154008  0.66700830  0.23147421    -0.04900
C2822       C  0.50099343  0.66411176  0.18969711     0.09200
C2823       C  0.50007915  0.68716485  0.16625877    -0.02300
C2824       C  0.50054949  0.71291931  0.18405420    -0.00600
C2825       C  0.50151247  0.71653369  0.22698685    -0.04200
C2826       C  0.00112160  0.69228484  0.24991762     0.02800
C2827       C  0.50263080  0.63666073  0.17080249     0.09700
C2828       C  0.49894538  0.68420225  0.12300737     0.35600
C2829       C  0.00436056  0.69205389  0.29307648     0.39000
C2830       C  0.98249888  0.61770596  0.17695053    -0.04500
C2831       C  0.98458425  0.59192990  0.16042693     0.02600
C2832       C  0.50588578  0.58508598  0.13553361    -0.04100
C2833       C  0.52687123  0.60311941  0.13204285    -0.00400
C2834       C  0.52535672  0.62860018  0.14944332    -0.02900
C2835       C  0.95943356  0.62469634  0.20010762     0.36300
C2836       C  0.55089526  0.59469691  0.11256034     0.39900
C2837       C  0.96535093  0.57206633  0.17021671     0.39100
C2838       C  0.54748557  0.64631098  0.14521470     0.36000
C2839       C  0.00470303  0.64355520  0.25596583     0.36700
C2840       C  0.49958473  0.73477735  0.15649783     0.39900
N2841       N  0.95065375  0.55582227  0.17924380    -0.38100
N2842       N  0.94117752  0.63015425  0.21902658    -0.39700
N2843       N  0.57042613  0.58779489  0.09826221    -0.37500
N2844       N  0.56542388  0.65999145  0.14096846    -0.39900
N2845       N  0.49829820  0.68167906  0.08856301    -0.39600
N2846       N  0.49841997  0.75125854  0.13273518    -0.37300
N2847       N  0.00770416  0.68912229  0.32704983    -0.38300
N2848       N  0.00725072  0.62495956  0.27547617    -0.40000
C2849       C  0.64632152  0.85017755  0.06762767    -0.04900
C2850       C  0.63958426  0.84980235  0.02659660     0.09200
C2851       C  0.65101367  0.83124365  0.00056477    -0.02300
C2852       C  0.66936651  0.81303921  0.01546309    -0.00600
C2853       C  0.67614681  0.81327465  0.05657171    -0.04200
C2854       C  0.66453612  0.83180973  0.08271176     0.02800
C2855       C  0.61879606  0.86776004  0.01155261     0.09700
C2856       C  0.64346973  0.83077589  0.95862318     0.35600
C2857       C  0.67119196  0.83194112  0.12496558     0.39000
C2858       C  0.62541144  0.89096454  0.99119838    -0.04500
C2859       C  0.60550500  0.90881241  0.98010055     0.02600
C2860       C  0.57925991  0.90472454  0.99297261    -0.04100
C2861       C  0.57266162  0.88041753  0.01135622    -0.00400
C2862       C  0.59234156  0.86165936  0.01894687    -0.02900
C2863       C  0.65276036  0.89675173  0.98272281     0.36300
C2864       C  0.54616495  0.87469765  0.02473959     0.39900
C2865       C  0.61210188  0.93105133  0.95496547     0.39100
C2866       C  0.58554280  0.83604093  0.03495746     0.36000
C2867       C  0.63433565  0.86948269  0.09412032     0.36700
C2868       C  0.68134168  0.79403493  0.98851498     0.39900
N2869       N  0.61731099  0.94871431  0.93476840    -0.38100
N2870       N  0.67460165  0.90139856  0.97619021    -0.39700
N2871       N  0.52525085  0.86954681  0.03572989    -0.37500
N2872       N  0.58022590  0.81544951  0.04708534    -0.39900
N2873       N  0.63722275  0.83067857  0.92526504    -0.39600
N2874       N  0.69083603  0.77877489  0.96714000    -0.37300
N2875       N  0.67621899  0.83229747  0.15879211    -0.38300
N2876       N  0.62460477  0.88496897  0.11487992    -0.40000
C2877       C  0.83230986  0.84387200  0.00876410    -0.04900
C2878       C  0.84871269  0.85676658  0.03667825     0.09200
C2879       C  0.84654865  0.85131499  0.07799172    -0.02300
C2880       C  0.82782403  0.83302227  0.09126962    -0.00600
C2881       C  0.81213129  0.81938360  0.06316125    -0.04200
C2882       C  0.81431510  0.82494463  0.02186755     0.02800
C2883       C  0.86719670  0.87729167  0.02269508     0.09700
C2884       C  0.86337820  0.86472511  0.10677005     0.35600
C2885       C  0.79713071  0.81215821  0.99292094     0.39000
C2886       C  0.86155445  0.90395202  0.03041512    -0.04500
C2887       C  0.88000745  0.92338447  0.02069327     0.02600
C2888       C  0.90425240  0.91605234  0.00252665    -0.04100
C2889       C  0.90788067  0.88967140  0.98959734    -0.00400
C2890       C  0.88971199  0.87025975  0.00059339    -0.02900
C2891       C  0.83649050  0.91134239  0.04802435     0.36300
C2892       C  0.93011897  0.88230422  0.96471147     0.39900
C2893       C  0.87368474  0.95062002  0.03019623     0.39100
C2894       C  0.89410114  0.84306134  0.98883036     0.36000
C2895       C  0.83357276  0.85057433  0.96660923     0.36700
C2896       C  0.82407049  0.82869030  0.13374249     0.39900
N2897       N  0.86826601  0.97223714  0.03767314    -0.38100
N2898       N  0.81643964  0.91722571  0.06174630    -0.39700
N2899       N  0.94782258  0.87632732  0.94494983    -0.37500
N2900       N  0.89744437  0.82148864  0.97873807    -0.39900
N2901       N  0.87673803  0.87543865  0.12977588    -0.39600
N2902       N  0.82079393  0.82524528  0.16756643    -0.37300
N2903       N  0.78319220  0.80250152  0.96963904    -0.38300
N2904       N  0.83478718  0.85591594  0.93304034    -0.40000
C2905       C  0.85303201  0.66752971  0.02835525    -0.04900
C2906       C  0.85767767  0.64764878  0.05678639     0.09200
C2907       C  0.84339924  0.64717795  0.09280201    -0.02300
C2908       C  0.82429086  0.66656050  0.10040830    -0.00600
C2909       C  0.81949284  0.68631615  0.07183813    -0.04200
C2910       C  0.83393523  0.68689008  0.03587464     0.02800
C2911       C  0.87697162  0.62655253  0.04773574     0.09700
C2912       C  0.84794358  0.62632019  0.12134639     0.35600
C2913       C  0.82856422  0.70701345  0.00623829     0.39000
C2914       C  0.90358550  0.62996733  0.05790661    -0.04500
C2915       C  0.92217454  0.61065392  0.04721198     0.02600
C2916       C  0.91425629  0.58804806  0.02480633    -0.04100
C2917       C  0.88734974  0.58535423  0.01368536    -0.00400
C2918       C  0.86871082  0.60395096  0.02680898    -0.02900
C2919       C  0.91177840  0.65342127  0.07968570     0.36300
C2920       C  0.87877436  0.56456375  0.98665030     0.39900
C2921       C  0.94927004  0.61455379  0.05977054     0.41300
C2922       C  0.84084166  0.59986411  0.01926092     0.36000
C2923       C  0.86734491  0.66753584  0.99086937     0.36700
C2924       C  0.80904955  0.66590727  0.13700253     0.39900
N2925       N  0.97074078  0.61846761  0.06979088    -0.38100
N2926       N  0.91841283  0.67207768  0.09699536    -0.39700
N2927       N  0.87175167  0.54832904  0.96463803    -0.37500
N2928       N  0.81852992  0.59671413  0.01408968    -0.39900
N2929       N  0.85162696  0.60957947  0.14398760    -0.39600
N2930       N  0.79671563  0.66545931  0.16602182    -0.37300
N2931       N  0.82421855  0.72319890  0.98286772    -0.38300
N2932       N  0.87864149  0.66748994  0.96087271    -0.40000
C2933       C  0.63375141  0.59365995  0.01706864    -0.04900
C2934       C  0.62622820  0.61977585  0.02513544     0.09200
C2935       C  0.59971418  0.62729082  0.02148729    -0.02300
C2936       C  0.58044263  0.60844709  0.01173051    -0.00600
C2937       C  0.58731329  0.58118416  0.00841717    -0.04200
C2938       C  0.61452385  0.57424247  0.00977968     0.02800
C2939       C  0.64651482  0.63987212  0.03516707     0.09700
C2940       C  0.59234040  0.65475221  0.02674276     0.35600
C2941       C  0.62341852  0.54754947  0.00194069     0.39000
C2942       C  0.65518847  0.65729936  0.00533817    -0.04500
C2943       C  0.67327416  0.67722781  0.01508951     0.02600
C2944       C  0.68342507  0.67917423  0.05436287    -0.04100
C2945       C  0.67588303  0.66086189  0.08368089    -0.00400
C2946       C  0.65688893  0.64161302  0.07438952    -0.02900
C2947       C  0.64554868  0.65454959  0.96458445     0.36300
C2948       C  0.68804447  0.66170289  0.12305490     0.39900
C2949       C  0.68167892  0.69563215  0.98471031     0.39100
C2950       C  0.64769675  0.62391397  0.10521320     0.36000
C2951       C  0.66151185  0.58716155  0.01407572     0.36700
C2952       C  0.55384216  0.61787956  0.00423099     0.39900
N2953       N  0.68838192  0.71037771  0.96055989    -0.38100
N2954       N  0.63786512  0.65222061  0.93209482    -0.39700
N2955       N  0.69817382  0.66234704  0.15415199    -0.37500
N2956       N  0.64027282  0.60990881  0.12989701    -0.39900
N2957       N  0.58638528  0.67662655  0.03048108    -0.39600
N2958       N  0.53273856  0.62552238  0.99802424    -0.37300
N2959       N  0.63073153  0.52642218  0.99505194    -0.38300
N2960       N  0.68362175  0.58214252  0.01078822    -0.40000
C2961       C  0.86710216  0.53371638  0.84002252    -0.04900
C2962       C  0.84860754  0.51284506  0.84170170     0.09200
C2963       C  0.85597432  0.98971787  0.86175738    -0.02300
C2964       C  0.88144594  0.98691074  0.87861126    -0.00600
C2965       C  0.90011547  0.50740100  0.87670490    -0.04200
C2966       C  0.89260340  0.53105711  0.85751170     0.02800
C2967       C  0.82229357  0.51427992  0.81958173     0.09700
C2968       C  0.83692040  0.96882172  0.86698795     0.35600
C2969       C  0.91056183  0.55318073  0.85753156     0.39000
C2970       C  0.82173164  0.51328608  0.77761599    -0.04500
C2971       C  0.79760939  0.51093823  0.75624963     0.02600
C2972       C  0.77230925  0.50942494  0.77630213    -0.04100
C2973       C  0.77352662  0.51162763  0.81941820    -0.00400
C2974       C  0.79810205  0.51421387  0.84012872    -0.02900
C2975       C  0.84660740  0.51285427  0.75617140     0.36300
C2976       C  0.75038709  0.01199286  0.84477151     0.39900
C2977       C  0.80015526  0.50586804  0.71358872     0.39100
C2978       C  0.79858732  0.51686702  0.88345277     0.36000
C2979       C  0.85949828  0.55828844  0.82132152     0.36700
C2980       C  0.88811797  0.96278418  0.89935919     0.39900
N2981       N  0.80405062  0.50079048  0.68031513    -0.38100
N2982       N  0.86649061  0.51254067  0.73941582    -0.39700
N2983       N  0.73288186  0.01281434  0.86682980    -0.37500
N2984       N  0.79917590  0.01863206  0.91799837    -0.39900
N2985       N  0.82166007  0.95235491  0.87234956    -0.39600
N2986       N  0.89313106  0.94345881  0.91589078    -0.37300
N2987       N  0.92471583  0.57099967  0.85759696    -0.38300
N2988       N  0.85329914  0.57783540  0.80630941    -0.40000
C2989       C  0.61803414  0.98455222  0.81580868    -0.04900
C2990       C  0.63788135  0.50254830  0.82745888     0.09200
C2991       C  0.63150185  0.52192139  0.85639179    -0.02300
C2992       C  0.60632764  0.52242809  0.87438079    -0.00600
C2993       C  0.58731194  0.50279712  0.86564555    -0.04200
C2994       C  0.59305776  0.98415254  0.83503307     0.02800
C2995       C  0.66469441  0.50311827  0.80710523     0.09700
C2996       C  0.65085380  0.54174073  0.86728844     0.35600
C2997       C  0.57378679  0.96447680  0.82385729     0.39000
C2998       C  0.67075964  0.52354807  0.78089053    -0.04500
C2999       C  0.69601967  0.52558344  0.76291199     0.02600
C3000       C  0.71738422  0.50701938  0.77146047    -0.04100
C3001       C  0.70913072  0.98594863  0.79686719    -0.00400
C3002       C  0.68360682  0.98462896  0.81455250    -0.02900
C3003       C  0.64986510  0.54215296  0.77074727     0.36300
C3004       C  0.72691567  0.96461069  0.80681846     0.39900
C3005       C  0.69687510  0.54553501  0.73216627     0.39100
C3006       C  0.67704701  0.96318780  0.84124812     0.36000
C3007       C  0.62361844  0.96597799  0.78386346     0.36700
C3008       C  0.59937816  0.54435534  0.90012239     0.39900
N3009       N  0.69569816  0.56164614  0.70791572    -0.38100
N3010       N  0.63323760  0.55683524  0.76271158    -0.39700
N3011       N  0.73969706  0.94710351  0.81749049    -0.37500
N3012       N  0.67173769  0.94607930  0.86243200    -0.39900
N3013       N  0.66626967  0.55765126  0.87547014    -0.39600
N3014       N  0.59383924  0.56245990  0.91945638    -0.37300
N3015       N  0.55836702  0.94890104  0.81433118    -0.38300
N3016       N  0.62802017  0.95121340  0.75823301    -0.40000
C3017       C  0.98071265  0.67577667  0.78756296    -0.04900
C3018       C  0.50010116  0.66872238  0.81522623     0.09200
C3019       C  0.52117214  0.68593878  0.82175066    -0.02300
C3020       C  0.52313148  0.71021165  0.80065068    -0.00600
C3021       C  0.50258881  0.71938212  0.77370211    -0.04200
C3022       C  0.98248330  0.69952762  0.76547273     0.02800
C3023       C  0.49871696  0.64245094  0.83638713     0.09700
C3024       C  0.54089192  0.67856513  0.85140167     0.35600
C3025       C  0.96510452  0.69995318  0.73102866     0.39000
C3026       C  0.51426339  0.62082021  0.82369236    -0.04500
C3027       C  0.51326679  0.59640112  0.84422057     0.02600
C3028       C  0.49623205  0.59315940  0.87728793    -0.04100
C3029       C  0.97995625  0.61471224  0.88874297    -0.00400
C3030       C  0.98123458  0.63903135  0.86851909    -0.02900
C3031       C  0.53117279  0.62375355  0.78917934     0.36300
C3032       C  0.96151582  0.61213393  0.92145681     0.39900
C3033       C  0.53078788  0.57519926  0.83245899     0.39100
C3034       C  0.96430143  0.66066127  0.88071162     0.36000
C3035       C  0.95904927  0.65753378  0.78057532     0.36700
C3036       C  0.54751237  0.72420036  0.80741238     0.39900
N3037       N  0.54494535  0.55843283  0.82297506    -0.38100
N3038       N  0.54451786  0.62621373  0.76148154    -0.39700
N3039       N  0.94667452  0.61069895  0.94747555    -0.37500
N3040       N  0.95058880  0.67776955  0.89027351    -0.39900
N3041       N  0.55635516  0.67256402  0.87523075    -0.39600
N3042       N  0.56811020  0.73258867  0.81505092    -0.37300
N3043       N  0.95092703  0.69875154  0.70391360    -0.38300
N3044       N  0.94180901  0.64308010  0.77514198    -0.40000
C3045       C  0.99605572  0.80180760  0.83813157    -0.04900
C3046       C  0.49665167  0.82538556  0.81612778     0.09200
C3047       C  0.50005485  0.82385012  0.77464951    -0.02300
C3048       C  0.50309562  0.79927500  0.75498052    -0.00600
C3049       C  0.50234634  0.77442064  0.77625183    -0.04200
C3050       C  0.99910397  0.77666860  0.81906295     0.02800
C3051       C  0.49532583  0.85229358  0.83619934     0.09700
C3052       C  0.50164868  0.84817406  0.75197396     0.35600
C3053       C  0.99889625  0.75408833  0.84522885     0.39000
C3054       C  0.51854113  0.86467119  0.85013904    -0.04500
C3055       C  0.51793231  0.89087296  0.86495068     0.02600
C3056       C  0.49407754  0.90528202  0.86662659    -0.04100
C3057       C  0.97089567  0.89303685  0.85206358    -0.00400
C3058       C  0.97144200  0.86664759  0.83750832    -0.02900
C3059       C  0.54308544  0.85014205  0.85113273     0.36300
C3060       C  0.94635482  0.90751479  0.85220164     0.39900
C3061       C  0.54204121  0.90290469  0.87948998     0.39100
C3062       C  0.94718774  0.85372845  0.82565217     0.36000
C3063       C  0.99232304  0.80359058  0.88110234     0.36700
C3064       C  0.51039202  0.80081067  0.71308064     0.39900
N3065       N  0.56139379  0.91239877  0.89079483    -0.38100
N3066       N  0.56296682  0.83908252  0.85311140    -0.39700
N3067       N  0.92665346  0.91894410  0.85141449    -0.37500
N3068       N  0.92780358  0.84323801  0.81677922    -0.39900
N3069       N  0.50310090  0.86742772  0.73378028    -0.39600
N3070       N  0.51715529  0.80413562  0.68046788    -0.37300
N3071       N  0.99806586  0.73714482  0.86823315    -0.38300
N3072       N  0.98930066  0.80497989  0.91536048    -0.40000
C3073       C  0.95228825  0.75828422  0.65932451    -0.04900
C3074       C  0.92818480  0.76020337  0.68003886     0.09200
C3075       C  0.92890366  0.75886052  0.72188409    -0.02300
C3076       C  0.95288580  0.75463962  0.74300638    -0.00600
C3077       C  0.97815657  0.75176650  0.72299221    -0.04200
C3078       C  0.97684780  0.75412438  0.67988860     0.02800
C3079       C  0.90152763  0.76108856  0.65847087     0.09700
C3080       C  0.90412249  0.76033055  0.74350501     0.35600
C3081       C  0.99989085  0.75271018  0.65476405     0.39000
C3082       C  0.89133041  0.73808838  0.64007313    -0.04500
C3083       C  0.86540578  0.73756092  0.62430458     0.02600
C3084       C  0.84879270  0.75991205  0.62638255    -0.04100
C3085       C  0.85886574  0.78309532  0.64434344    -0.00400
C3086       C  0.88502624  0.78374027  0.66011792    -0.02900
C3087       C  0.90754327  0.71472246  0.63629799     0.36300
C3088       C  0.84256598  0.80653993  0.64527592     0.39900
C3089       C  0.85594932  0.71373740  0.60501474     0.39100
C3090       C  0.89524131  0.80801315  0.67698809     0.36000
C3091       C  0.95172964  0.76083159  0.61605286     0.36700
C3092       C  0.94990095  0.75010916  0.78559396     0.39900
N3093       N  0.84871286  0.69451002  0.58995742    -0.38100
N3094       N  0.91984745  0.69574510  0.63192508    -0.39700
N3095       N  0.82941964  0.82516917  0.64597496    -0.37500
N3096       N  0.90330439  0.82750559  0.69024690    -0.39900
N3097       N  0.88433160  0.76148951  0.76042986    -0.39600
N3098       N  0.94524632  0.74612613  0.81889043    -0.37300
N3099       N  0.01726933  0.75229248  0.63245869    -0.38300
N3100       N  0.95139388  0.76287165  0.58156646    -0.40000
C3101       C  0.57979146  0.76346125  0.72092421    -0.04900
C3102       C  0.58531141  0.74466925  0.69148558     0.09200
C3103       C  0.56590786  0.72589826  0.68209449    -0.02300
C3104       C  0.54094536  0.72600625  0.70182067    -0.00600
C3105       C  0.53331478  0.74683304  0.72905150    -0.04200
C3106       C  0.55506685  0.76421243  0.74041953     0.02800
C3107       C  0.61151452  0.74589370  0.66984033     0.09700
C3108       C  0.57146047  0.70681636  0.65073179     0.35600
C3109       C  0.55528458  0.78054252  0.77618212     0.39000
C3110       C  0.63334065  0.73021634  0.68158298    -0.04500
C3111       C  0.65821150  0.73308375  0.66253315     0.02600
C3112       C  0.66181103  0.75248111  0.63280243    -0.04100
C3113       C  0.64052514  0.76962175  0.62401134    -0.00400
C3114       C  0.61550078  0.76579872  0.64125193    -0.02900
C3115       C  0.63034593  0.71160873  0.71393502     0.36300
C3116       C  0.64460954  0.79207749  0.59820314     0.39900
C3117       C  0.67988706  0.71586229  0.67313006     0.39100
C3118       C  0.59369273  0.78275638  0.63003440     0.36000
C3119       C  0.60051905  0.78191769  0.73230072     0.36700
C3120       C  0.52384078  0.70388851  0.69331236     0.39900
N3121       N  0.69721095  0.70216835  0.68178805    -0.38100
N3122       N  0.62805646  0.69693457  0.74005578    -0.39700
N3123       N  0.64774467  0.81036771  0.57834751    -0.37500
N3124       N  0.57617825  0.79619230  0.62136672    -0.39900
N3125       N  0.57586684  0.69186061  0.62535808    -0.39600
N3126       N  0.51169940  0.68539355  0.68495892    -0.37300
N3127       N  0.55702273  0.79305779  0.80508503    -0.38300
N3128       N  0.61695564  0.79653541  0.74141161    -0.40000
C3129       C  0.73181886  0.62124673  0.64520114    -0.04900
C3130       C  0.75470897  0.61190842  0.66489619     0.09200
C3131       C  0.77618165  0.62953650  0.67016871    -0.02300
C3132       C  0.77500529  0.65552759  0.65477458    -0.00600
C3133       C  0.75266272  0.66416719  0.63337478    -0.04200
C3134       C  0.73083303  0.64709444  0.62980602     0.02800
C3135       C  0.75471587  0.58492656  0.68449287     0.09700
C3136       C  0.79957078  0.62102332  0.69153590     0.35600
C3137       C  0.70696886  0.65633254  0.61042993     0.39000
C3138       C  0.75379062  0.56133731  0.66197531    -0.04500
C3139       C  0.75121071  0.53620720  0.68081684     0.02600
C3140       C  0.74908758  0.53390578  0.72380085    -0.04100
C3141       C  0.75066359  0.55873957  0.74564156    -0.00400
C3142       C  0.75331376  0.58331378  0.72621763    -0.02900
C3143       C  0.75482679  0.56310128  0.61860291     0.36300
C3144       C  0.74574612  0.56071076  0.78828323     0.39900
C3145       C  0.75090329  0.51370548  0.65410259     0.39100
C3146       C  0.75226486  0.60768104  0.74945079     0.36000
C3147       C  0.70903585  0.60438184  0.64028925     0.36700
C3148       C  0.79685877  0.67341309  0.66064968     0.39900
N3149       N  0.75001452  0.99684755  0.63069503    -0.38100
N3150       N  0.75524235  0.56450224  0.58404163    -0.39700
N3151       N  0.74136556  0.56517446  0.82160360    -0.37500
N3152       N  0.75130505  0.62705180  0.76779699    -0.39900
N3153       N  0.81818921  0.61454216  0.70900423    -0.39600
N3154       N  0.81408079  0.68790494  0.66588015    -0.37300
N3155       N  0.68768415  0.66363695  0.59566609    -0.38300
N3156       N  0.69062160  0.59139123  0.63528002    -0.40000
C3157       C  0.72708665  0.88175885  0.66741905    -0.04900
C3158       C  0.74491391  0.90243720  0.65908713     0.09200
C3159       C  0.76584163  0.89734474  0.63231027    -0.02300
C3160       C  0.76920214  0.87207806  0.61489011    -0.00600
C3161       C  0.75127691  0.85138979  0.62291712    -0.04200
C3162       C  0.73025069  0.85646488  0.64949121     0.02800
C3163       C  0.74413623  0.92837324  0.68228906     0.09700
C3164       C  0.78411745  0.91829165  0.62268198     0.35600
C3165       C  0.71127536  0.83588977  0.65730725     0.39000
C3166       C  0.76361960  0.93349246  0.71098084    -0.04500
C3167       C  0.76435674  0.95763389  0.73272647     0.02600
C3168       C  0.74572579  0.97908098  0.72521359    -0.04100
C3169       C  0.72436779  0.97167728  0.69851871    -0.00400
C3170       C  0.72429300  0.94734050  0.67668178    -0.02900
C3171       C  0.78270255  0.91270784  0.71948851     0.36300
C3172       C  0.70181319  0.98862185  0.69179182     0.39900
C3173       C  0.78332225  0.95726075  0.76528686     0.39100
C3174       C  0.70361187  0.94180494  0.64767355     0.36000
C3175       C  0.70519509  0.88659268  0.69409876     0.36700
C3176       C  0.79158301  0.86739431  0.58896578     0.39900
N3177       N  0.79877924  0.95522807  0.79063228    -0.38100
N3178       N  0.79775674  0.89614330  0.72608286    -0.39700
N3179       N  0.68299668  0.00057473  0.68446470    -0.37500
N3180       N  0.68705427  0.93734469  0.62472183    -0.39900
N3181       N  0.79874345  0.93495774  0.61514421    -0.39600
N3182       N  0.80964979  0.86404440  0.56859982    -0.37300
N3183       N  0.69617855  0.81939962  0.66349201    -0.38300
N3184       N  0.68748315  0.89059185  0.71492776    -0.40000
C3185       C  0.91258065  0.59467926  0.49776815    -0.04900
C3186       C  0.89716927  0.60869053  0.46997859     0.09200
C3187       C  0.89797556  0.60220972  0.42885702    -0.02300
C3188       C  0.91599238  0.58322680  0.41512319    -0.00600
C3189       C  0.93197362  0.56970178  0.44289178    -0.04200
C3190       C  0.92892495  0.57425374  0.48438261     0.02800
C3191       C  0.87998134  0.63035741  0.48399004     0.09700
C3192       C  0.88009966  0.61494127  0.40094813     0.35600
C3193       C  0.94259263  0.55787348  0.51325915     0.39000
C3194       C  0.88674748  0.65656727  0.47552282    -0.04500
C3195       C  0.86889114  0.67694201  0.48402635     0.02600
C3196       C  0.84458836  0.67107822  0.50288931    -0.04100
C3197       C  0.83992306  0.64512258  0.51661893    -0.00400
C3198       C  0.85685984  0.62463526  0.50515567    -0.02900
C3199       C  0.91185415  0.66238440  0.45694484     0.36300
C3200       C  0.81742625  0.63911175  0.54163806     0.39900
C3201       C  0.87554786  0.70348570  0.47175958     0.39100
C3202       C  0.84982362  0.59750294  0.51325597     0.36000
C3203       C  0.91204128  0.60169486  0.53995109     0.36700
C3204       C  0.91759382  0.57709732  0.37274922     0.39900
N3205       N  0.88122473  0.72454303  0.46200394    -0.38100
N3206       N  0.93188042  0.66698144  0.44221843    -0.39700
N3207       N  0.79955267  0.63412231  0.56153404    -0.37500
N3208       N  0.84418093  0.57585032  0.51941419    -0.39900
N3209       N  0.86566083  0.62498688  0.37887818    -0.39600
N3210       N  0.91851989  0.57188741  0.33901441    -0.37300
N3211       N  0.95315045  0.54467739  0.53647195    -0.38300
N3212       N  0.91164468  0.60738332  0.57353941    -0.40000
C3213       C  0.65534963  0.61766311  0.47909349    -0.04900
C3214       C  0.62942512  0.62391492  0.49013555     0.09200
C3215       C  0.62413600  0.64738698  0.51105860    -0.02300
C3216       C  0.64448477  0.66557526  0.51849996    -0.00600
C3217       C  0.67012868  0.66102160  0.50295953    -0.04200
C3218       C  0.67556799  0.63635981  0.48416841     0.02800
C3219       C  0.60752838  0.60629708  0.47732698     0.09700
C3220       C  0.59756799  0.65293069  0.52441268     0.35600
C3221       C  0.70129328  0.63028046  0.46782217     0.39000
C3222       C  0.60015591  0.58487338  0.50134160    -0.04500
C3223       C  0.58053854  0.56739175  0.48786075     0.02600
C3224       C  0.56900261  0.57072503  0.44962388    -0.04100
C3225       C  0.57602028  0.59248259  0.42596159    -0.00400
C3226       C  0.59505878  0.61042083  0.44000473    -0.02900
C3227       C  0.61301620  0.58074650  0.53965487     0.36300
C3228       C  0.56336713  0.59646901  0.38743811     0.39900
C3229       C  0.57175296  0.54629303  0.51360739     0.39100
C3230       C  0.60188204  0.63312631  0.41608603     0.36000
C3231       C  0.66093700  0.59180335  0.46237664     0.36700
C3232       C  0.63860395  0.68919536  0.54148988     0.39900
N3233       N  0.56454012  0.52956397  0.53417223    -0.38100
N3234       N  0.62342196  0.57746080  0.57011624    -0.39700
N3235       N  0.55300827  0.59959390  0.35689787    -0.37500
N3236       N  0.60719327  0.65129803  0.39705039    -0.39900
N3237       N  0.57637602  0.65734902  0.53508280    -0.39600
N3238       N  0.63382939  0.70807615  0.55962186    -0.37300
N3239       N  0.72155469  0.62483198  0.45439632    -0.38300
N3240       N  0.66491215  0.57087885  0.44990131    -0.40000
C3241       C  0.59446284  0.91421557  0.48532085    -0.04900
C3242       C  0.60644269  0.89815999  0.45601755     0.09200
C3243       C  0.60077756  0.90218557  0.41503690    -0.02300
C3244       C  0.58297564  0.92211268  0.40350655    -0.00600
C3245       C  0.57053119  0.93766022  0.43294709    -0.04200
C3246       C  0.57651490  0.93387809  0.47383925     0.02800
C3247       C  0.62539011  0.87727766  0.46866173     0.09700
C3248       C  0.61330577  0.88587832  0.38484508     0.35600
C3249       C  0.56392805  0.95010500  0.50411851     0.39000
C3250       C  0.61754442  0.85072830  0.46934929    -0.04500
C3251       C  0.63573915  0.83087295  0.47990599     0.02600
C3252       C  0.66180400  0.83769741  0.49198153    -0.04100
C3253       C  0.66820779  0.86488864  0.49603424    -0.00400
C3254       C  0.65060631  0.88434269  0.48246289    -0.02900
C3255       C  0.59047278  0.84400596  0.45977234     0.36300
C3256       C  0.69244800  0.87333011  0.51541017     0.39900
C3257       C  0.62723077  0.80364532  0.47774683     0.39100
C3258       C  0.65839662  0.91184026  0.48280005     0.36000
C3259       C  0.60070322  0.91039335  0.52733186     0.36700
C3260       C  0.57767885  0.92694728  0.36149268     0.39900
N3261       N  0.62021694  0.78199879  0.47608030    -0.38100
N3262       N  0.56877565  0.83886467  0.45259679    -0.39700
N3263       N  0.71162620  0.88022059  0.53106487    -0.37500
N3264       N  0.66448302  0.93377869  0.48309717    -0.39900
N3265       N  0.62319116  0.87282130  0.36069579    -0.39600
N3266       N  0.57361209  0.93102445  0.32797603    -0.37300
N3267       N  0.55385478  0.96304396  0.52822605    -0.38300
N3268       N  0.60609229  0.90727408  0.56066821    -0.40000
C3269       C  0.84994871  0.88242064  0.44554205    -0.04900
C3270       C  0.87538586  0.88024060  0.46192505     0.09200
C3271       C  0.88137421  0.86003295  0.48917340    -0.02300
C3272       C  0.86199152  0.84158592  0.49948614    -0.00600
C3273       C  0.83608570  0.84399562  0.48377670    -0.04200
C3274       C  0.83002094  0.86520911  0.45780161     0.02800
C3275       C  0.89574026  0.89981636  0.45107817     0.09700
C3276       C  0.90777075  0.85783609  0.50566410     0.35600
C3277       C  0.80354847  0.86945973  0.44275951     0.39000
C3278       C  0.90195759  0.92027485  0.47812273    -0.04500
C3279       C  0.92096647  0.93904091  0.46786966     0.02600
C3280       C  0.93348388  0.93761461  0.43016647    -0.04100
C3281       C  0.92689831  0.91735777  0.40287617    -0.00400
C3282       C  0.90809028  0.89840835  0.41341415    -0.02900
C3283       C  0.88848124  0.92212270  0.51627424     0.36300
C3284       C  0.93953366  0.91600188  0.36409061     0.39900
C3285       C  0.92760784  0.95985994  0.49610061     0.39100
C3286       C  0.90089025  0.87778635  0.38526673     0.36000
C3287       C  0.84474513  0.90151055  0.41427338     0.36700
C3288       C  0.86897256  0.82019978  0.52622627     0.39900
N3289       N  0.93272674  0.97660033  0.51843995    -0.38100
N3290       N  0.87766044  0.92346298  0.54662637    -0.39700
N3291       N  0.94967560  0.91477750  0.33319421    -0.37500
N3292       N  0.89462593  0.86155632  0.36276234    -0.39900
N3293       N  0.92880445  0.85612333  0.51884708    -0.39600
N3294       N  0.87472940  0.80296434  0.54704470    -0.37300
N3295       N  0.78246770  0.87367132  0.43123151    -0.38300
N3296       N  0.84112980  0.91615962  0.38841919    -0.40000
C3297       C  0.61149728  0.73589405  0.36972813    -0.04900
C3298       C  0.60772017  0.75307219  0.33732094     0.09200
C3299       C  0.62934131  0.76797983  0.32351866    -0.02300
C3300       C  0.65426836  0.76641897  0.34305284    -0.00600
C3301       C  0.65799596  0.74931904  0.37594675    -0.04200
C3302       C  0.63644136  0.73348294  0.38800529     0.02800
C3303       C  0.58199229  0.75196691  0.31443589     0.09700
C3304       C  0.62590787  0.78465726  0.28885185     0.35600
C3305       C  0.63991180  0.71358179  0.41832766     0.39000
C3306       C  0.56211433  0.77084520  0.31965687    -0.04500
C3307       C  0.53736141  0.76846348  0.29962542     0.02600
C3308       C  0.53091540  0.74591760  0.27481570    -0.04100
C3309       C  0.55301872  0.72787402  0.26827522    -0.00400
C3310       C  0.57741107  0.73080022  0.28858195    -0.02900
C3311       C  0.56718336  0.79285040  0.34647850     0.36300
C3312       C  0.55405182  0.70778546  0.23731178     0.39900
C3313       C  0.51874944  0.78965506  0.30658604     0.39100
C3314       C  0.59892705  0.71224842  0.28147043     0.36000
C3315       C  0.58959528  0.72014389  0.38381932     0.36700
C3316       C  0.67580014  0.78273618  0.32967059     0.39900
N3317       N  0.00507369  0.80717183  0.31440006    -0.38100
N3318       N  0.57120460  0.81040878  0.36783537    -0.39700
N3319       N  0.55688391  0.69181759  0.21288110    -0.37500
N3320       N  0.61596224  0.69760294  0.27551036    -0.39900
N3321       N  0.62304069  0.79788399  0.26107501    -0.39600
N3322       N  0.69298664  0.79573887  0.31879777    -0.37300
N3323       N  0.64199202  0.69725770  0.44202400    -0.38300
N3324       N  0.57215280  0.70759108  0.39497281    -0.40000
C3325       C  0.88977917  0.76736161  0.35520328    -0.04900
C3326       C  0.89870058  0.74299030  0.33950418     0.09200
C3327       C  0.88153956  0.72105263  0.34166309    -0.02300
C3328       C  0.85600371  0.72351444  0.35880320    -0.00600
C3329       C  0.84712228  0.74793944  0.37438782    -0.04200
C3330       C  0.86444630  0.76973628  0.37259280     0.02800
C3331       C  0.92546970  0.74082460  0.31888832     0.09700
C3332       C  0.89058266  0.69565569  0.32720920     0.35600
C3333       C  0.85646682  0.79484842  0.38949400     0.39000
C3334       C  0.94933409  0.74272929  0.34045398    -0.04500
C3335       C  0.97433353  0.74285278  0.32070515     0.02600
C3336       C  0.97627815  0.74217311  0.27742137    -0.04100
C3337       C  0.95131219  0.73853173  0.25670644    -0.00400
C3338       C  0.92681828  0.73782667  0.27715990    -0.02900
C3339       C  0.94802266  0.74440968  0.38384737     0.36300
C3340       C  0.94929346  0.73954385  0.21340098     0.39900
C3341       C  0.99706542  0.74255212  0.34699375     0.39100
C3342       C  0.90235773  0.73617315  0.25444791     0.36000
C3343       C  0.90685443  0.79015495  0.35458719     0.36700
C3344       C  0.83931495  0.70054716  0.36194348     0.39900
N3345       N  0.51419057  0.74179095  0.36998417    -0.38100
N3346       N  0.94696669  0.74587800  0.41838979    -0.39700
N3347       N  0.94539322  0.74088965  0.17931624    -0.37500
N3348       N  0.88297820  0.73492833  0.23619951    -0.39900
N3349       N  0.89799941  0.67549626  0.31548735    -0.39600
N3350       N  0.82607243  0.68212555  0.36427989    -0.37300
N3351       N  0.85055284  0.81509098  0.40270385    -0.38300
N3352       N  0.92023923  0.80854598  0.35511358    -0.40000
C3353       C  0.72273609  0.88533280  0.35530212    -0.04900
C3354       C  0.74533093  0.89515084  0.33555244     0.09200
C3355       C  0.76721615  0.87791533  0.33101394    -0.02300
C3356       C  0.76653646  0.85176758  0.34611661    -0.00600
C3357       C  0.74442307  0.84251461  0.36718655    -0.04200
C3358       C  0.72216819  0.85922278  0.37019214     0.02800
C3359       C  0.74511091  0.92286369  0.31777267     0.09700
C3360       C  0.79120570  0.88710181  0.31263566     0.35600
C3361       C  0.69834289  0.84930492  0.38838457     0.39000
C3362       C  0.76073807  0.94367377  0.33324974    -0.04500
C3363       C  0.76160474  0.96878376  0.31367370     0.02600
C3364       C  0.74433525  0.97473843  0.28062832    -0.04100
C3365       C  0.72374048  0.95562004  0.27515071    -0.00400
C3366       C  0.72707443  0.92925052  0.28728051    -0.02900
C3367       C  0.77524302  0.93945490  0.37006161     0.36300
C3368       C  0.69659818  0.96315163  0.26855752     0.39900
C3369       C  0.78006983  0.98811719  0.32869358     0.39100
C3370       C  0.71082318  0.90892677  0.26909922     0.36000
C3371       C  0.70030807  0.90252034  0.36203636     0.36700
C3372       C  0.78918448  0.83468101  0.34132144     0.39900
N3373       N  0.79478437  0.00315409  0.34212910    -0.38100
N3374       N  0.78620251  0.93621196  0.40006730    -0.39700
N3375       N  0.67446173  0.96793464  0.26471547    -0.37500
N3376       N  0.69792504  0.89280603  0.25429274    -0.39900
N3377       N  0.81098696  0.89361149  0.29885919    -0.39600
N3378       N  0.80727652  0.82113560  0.33687713    -0.37300
N3379       N  0.67911314  0.84129072  0.40207388    -0.38300
N3380       N  0.68242304  0.91621668  0.36742368    -0.40000
C3381       C  0.77040359  0.60937094  0.36716423    -0.04900
C3382       C  0.75283234  0.60527667  0.33485867     0.09200
C3383       C  0.73589569  0.62638411  0.32401105    -0.02300
C3384       C  0.73658603  0.65096973  0.34509314    -0.00600
C3385       C  0.75468197  0.65524759  0.37692626    -0.04200
C3386       C  0.77182816  0.63409347  0.38704245     0.02800
C3387       C  0.75197983  0.57839113  0.31371351     0.09700
C3388       C  0.71695492  0.62261786  0.29200215     0.35600
C3389       C  0.79152609  0.63756960  0.41793207     0.39000
C3390       C  0.73207682  0.56003060  0.32215635    -0.04500
C3391       C  0.73201287  0.53424112  0.30457495     0.02600
C3392       C  0.75193141  0.52579336  0.27661814    -0.04100
C3393       C  0.77407991  0.54361233  0.27404932    -0.00400
C3394       C  0.77300401  0.56983006  0.28962816    -0.02900
C3395       C  0.71130492  0.56807338  0.34923504     0.36300
C3396       C  0.80018471  0.53496500  0.26302908     0.39900
C3397       C  0.71110139  0.51684648  0.31669508     0.39100
C3398       C  0.79443455  0.58802437  0.28186939     0.36000
C3399       C  0.78632792  0.58754586  0.38141938     0.36700
C3400       C  0.71753071  0.67123999  0.33538010     0.39900
N3401       N  0.69411595  0.50417821  0.32902222    -0.38100
N3402       N  0.69489713  0.57508026  0.37070160    -0.39700
N3403       N  0.82194885  0.52977410  0.25670620    -0.37500
N3404       N  0.81163877  0.60228936  0.27558315    -0.39900
N3405       N  0.70146708  0.61998931  0.26679874    -0.39600
N3406       N  0.70210861  0.68723563  0.32759905    -0.37300
N3407       N  0.80755621  0.63989449  0.44228300    -0.38300
N3408       N  0.79880859  0.57010193  0.39312272    -0.40000
loop_ 
_geom_bond_atom_site_label_1 
_geom_bond_atom_site_label_2 
_geom_bond_distance 
_geom_bond_site_symmetry_2 
_ccdc_geom_bond_type 
O1           C12   1.307       .  A
O1          Eu37   2.548       .  S
O2           C13   1.304       .  A
O2          Eu36   2.536       .  S
O3           C14   1.286       .  A
O3           Eu9   2.430       .  S
O4           C15   1.284       .  A
O4           Eu9   2.431       .  S
O5           C15   1.292       .  A
O5          Eu39   2.465       .  S
O6           C14   1.283       .  A
O6          Eu38   2.423       .  S
O7           C13   1.285       .  A
O7           Eu9   2.425       .  S
O8           C12   1.290       .  A
O8           Eu9   2.452       .  S
Eu9          O19   2.346       .  S
Eu9          O11   2.343       .  S
Eu9          O10   2.350       .  S
Eu9          O17   2.359       .  S
O10         Eu39   2.342       .  S
O10         Eu36   2.380       .  S
O11         Eu37   2.371       .  S
O11         Eu38   2.353       .  S
C12         C829   1.522       .  S
C13         C577   1.496       .  S
C14         C640   1.484       .  S
C15         C661   1.498       .  S
H16          O17   0.952       .  S
O17         Eu38   2.353       .  S
O17         Eu36   2.375       .  S
H18          O19   0.969       .  S
O19         Eu37   2.378       .  S
O19         Eu39   2.355       .  S
O20          C43   1.305       .  A
O20         Eu36   2.536       .  S
O21          C44   1.306       .  A
O21         Eu37   2.543       .  S
O22          C45   1.285       .  A
O22         Eu38   2.426       .  S
O23          C46   1.288       .  A
O23         Eu39   2.439       .  S
O24          C47   1.287       .  A
O24         Eu39   2.430       .  S
O25          C48   1.284       .  A
O25         Eu38   2.421       .  S
O26          C49   1.284       .  A
O26         Eu40   2.430       .  S
O27          C50   1.285       .  A
O27         Eu40   2.431       .  S
O28          C49   1.287       .  A
O28         Eu38   2.441       .  S
O29          C50   1.290       .  A
O29         Eu39   2.465       .  S
O30          C45   1.308       .  A
O30         Eu36   2.555       .  S
O31          C48   1.310       .  A
O31         Eu37   2.566       .  S
O32          C47   1.307       .  A
O32         Eu37   2.544       .  S
O33          C46   1.305       .  A
O33         Eu36   2.536       .  S
O34          C43   1.287       .  A
O34         Eu40   2.434       .  S
O35          C44   1.287       .  A
O35         Eu40   2.439       .  S
Eu36         O54   2.384       .  S
Eu36         O42   2.378       .  S
Eu37         O41   2.377       .  S
Eu37         O52   2.378       .  S
Eu38         O52   2.349       .  S
Eu38         O42   2.341       .  S
Eu39         O41   2.343       .  S
Eu39         O54   2.353       .  S
Eu40         O41   2.337       .  S
Eu40         O52   2.354       .  S
Eu40         O54   2.353       .  S
Eu40         O42   2.351       .  S
C43         C605   1.504       .  S
C44         C801   1.506       .  S
C45         C528   1.506       .  S
C46         C556   1.507       .  S
C47         C745   1.511       .  S
C48         C773   1.509       .  S
C49         C717   1.487       .  S
C50         C696   1.506       .  S
H51          O52   0.967       .  S
H53          O54   0.959       .  S
N55          H87   1.038       .  S
N55          C59   1.353       .  A
N55        C1764   1.354   1_455  A
N56          C64   1.350       .  A
N56         C915   1.349   1_545  A
N57          H88   1.036       .  S
N57          C61   1.353       .  A
N57        C1766   1.352   1_455  A
N58          C66   1.348       .  A
N58         C917   1.348   1_545  A
C59          C67   1.387       .  A
C59          C75   1.414       .  A
C60        N1759   1.354       .  A
C60          C76   1.413       .  A
C60          C68   1.387       .  A
C61          C69   1.386       .  A
C61          C78   1.414       .  A
C62        N1761   1.352       .  A
C62          C77   1.417       .  A
C62          C70   1.389       .  A
C63         N908   1.350       .  A
C63          C75   1.410       .  A
C63          C71   1.386       .  A
C64          C78   1.411       .  A
C64          C72   1.386       .  A
C65         N910   1.348       .  A
C65          C73   1.386       .  A
C65          C76   1.408       .  A
C66          C74   1.388       .  A
C66          C77   1.409       .  A
C67        C1772   1.370   1_455  A
C67          H79   1.082       .  S
C68        C1771   1.370       .  A
C68          H80   1.082       .  S
C69        C1774   1.369   1_455  A
C69          H81   1.082       .  S
C70        C1773   1.369       .  A
C70          H82   1.082       .  S
C71         C924   1.371       .  A
C71          H83   1.082       .  S
C72         C923   1.372   1_545  A
C72          H84   1.083       .  S
C73         C926   1.367       .  A
C73          H85   1.083       .  S
C74         C925   1.367   1_545  A
C74          H86   1.082       .  S
C75         C689   1.491       .  S
C76         C724   1.489       .  S
C77         C633   1.485       .  S
C78         C668   1.491       .  S
O89         C100   1.309       .  A
O89        Eu977   2.562       .  S
O90         C101   1.305   1_455  A
O90        Eu124   2.541   1_455  S
O91         C102   1.285       .  A
O91         Eu97   2.432   1_455  S
O92         C103   1.289       .  A
O92       Eu1801   2.451       .  S
O93         C103   1.280       .  A
O93        Eu979   2.407   1_556  S
O94         C102   1.290       .  A
O94        Eu978   2.453       .  S
O95         C101   1.290       .  A
O95         Eu97   2.450   1_554  S
O96         C100   1.285       .  A
O96         Eu97   2.428       .  S
Eu97       O1796   2.451       .  S
Eu97         O99   2.357   1_655  S
Eu97        O105   2.352   1_656  S
Eu97       O1811   2.355       .  S
Eu97       O1802   2.344   1_556  S
O98       Eu1801   2.344   1_554  S
O98        Eu979   2.358       .  S
O98       Eu1828   2.377       .  S
O99        Eu977   2.373   1_455  S
O99        Eu978   2.347       .  S
C100        C500   1.506       .  S
C101        C248   1.517   1_655  S
C102        C304   1.490       .  S
C103        C332   1.488   1_556  S
H104        O105   0.967       .  S
O105       Eu124   2.379   1_455  S
O105       Eu978   2.356   1_554  S
H106        O107   0.962       .  S
O107      Eu1801   2.355       .  S
O107      Eu2681   2.380       .  S
O107       Eu979   2.357   1_556  S
O108        C131   1.304       .  A
O108       Eu976   2.533   1_445  S
O109        C132   1.303       .  A
O109       Eu125   2.524   1_545  S
O110        C133   1.283       .  A
O110       Eu978   2.422   1_554  S
O111        C134   1.284       .  A
O111       Eu979   2.425       .  S
O112        C135   1.287       .  A
O112       Eu127   2.437   1_546  S
O113        C136   1.289       .  A
O113       Eu126   2.447       .  S
O114        C137   1.281       .  A
O114       Eu128   2.416   1_455  S
O115        C138   1.286       .  A
O115      Eu1832   2.441       .  S
O116        C137   1.287   1_556  A
O116       Eu126   2.446   1_545  S
O117        C138   1.286       .  A
O117       Eu127   2.441   1_545  S
O118        C133   1.308       .  A
O118       Eu124   2.558   1_455  S
O119        C136   1.306       .  A
O119       Eu125   2.545   1_455  S
O120        C135   1.306       .  A
O120      Eu1829   2.544   1_545  S
O121        C134   1.311       .  A
O121      Eu1828   2.568       .  S
O122        C131   1.290       .  A
O122       Eu128   2.448   1_455  S
O123        C132   1.290       .  A
O123       Eu128   2.446   1_556  S
Eu124       O960   2.532   1_655  S
Eu124      O1825   2.568       .  S
Eu124      O1802   2.377       .  S
Eu124      O2698   2.379       .  S
Eu124       O982   2.375   1_655  S
Eu125       O941   2.561       .  S
Eu125      O1824   2.544   1_565  S
Eu125       O140   2.379   1_665  S
Eu125       O951   2.374   1_655  S
Eu125      O2663   2.376       .  S
Eu125      O1833   2.388   1_565  S
Eu126       O946   2.449       .  S
Eu126       O962   2.424   1_556  S
Eu126       O140   2.341   1_565  S
Eu126       O130   2.344   1_566  S
Eu126       O951   2.346       .  S
Eu126       O957   2.355   1_556  S
Eu127       O945   2.407   1_554  S
Eu127       O963   2.423       .  S
Eu127       O129   2.337   1_564  S
Eu127       O142   2.344   1_565  S
Eu127       O950   2.360       .  S
Eu127       O959   2.356   1_554  S
Eu128      O1819   2.441       .  S
Eu128       O140   2.351   1_654  S
Eu128       O130   2.341   1_655  S
Eu128      O1833   2.348   1_554  S
Eu128      O1846   2.343       .  S
O129      Eu1829   2.388   1_545  S
O129      Eu1832   2.348   1_556  S
O130       Eu976   2.377   1_445  S
C131        C276   1.506       .  S
C132        C472   1.507       .  S
C133        C192   1.535       .  S
C134        C213   1.509       .  S
C135        C409   1.506       .  S
C136        C437   1.509   1_565  S
C137        C381   1.504       .  S
C138        C360   1.492       .  S
H139        O140   0.969       .  S
H141        O142   0.968       .  S
O142      Eu2680   2.381   1_545  S
O142      Eu1832   2.343       .  S
N143        H175   1.037       .  S
N143        C148   1.352       .  A
N143        C147   1.350       .  A
N144        C151   1.348       .  A
N144        C152   1.348       .  A
N145        H176   1.036       .  S
N145        C150   1.352       .  A
N145        C149   1.353       .  A
N146        C153   1.349       .  A
N146        C154   1.348       .  A
C147        C155   1.389       .  A
C147        C163   1.412       .  A
C148        C164   1.410       .  A
C148        C156   1.386       .  A
C149        C157   1.388       .  A
C149        C166   1.414       .  A
C150        C165   1.413       .  A
C150        C158   1.387       .  A
C151        C163   1.409       .  A
C151        C159   1.387       .  A
C152        C166   1.409       .  A
C152        C160   1.387       .  A
C153        C161   1.386       .  A
C153        C164   1.409       .  A
C154        C162   1.386       .  A
C154        C165   1.409       .  A
C155        C156   1.369       .  A
C155        H167   1.082       .  S
C156        H168   1.082       .  S
C157        C158   1.367       .  A
C157        H169   1.082       .  S
C158        H170   1.082       .  S
C159        C160   1.369       .  A
C159        H171   1.083       .  S
C160        H172   1.082       .  S
C161        C162   1.371       .  A
C161        H173   1.083       .  S
C162        H174   1.083       .  S
C163        C353   1.482       .  S
C164        C388   1.486       .  S
C165        C297   1.485       .  S
C166        C325   1.487       .  S
C177        C241   1.640       .  S
C177        C269   1.620       .  S
C177        C752   1.630       .  S
C177       C2484   1.626   1_455  S
C178        C836   1.628   1_565  S
C178       C1037   1.615   1_565  S
C178       C1072   1.621       .  S
C178       C1660   1.628       .  S
C179        C465   1.638       .  S
C179        C493   1.616       .  S
C179        C549   1.636       .  S
C179       C2225   1.628   1_455  S
C180        C612   1.640       .  S
C180       C1268   1.619       .  S
C180       C1296   1.637       .  S
C180       C1436   1.620       .  S
C181        C182   1.412       .  A
C181        C186   1.422       .  A
C181        C199   1.454       .  S
C182        C187   1.524       .  S
C182       C1035   1.407       .  A
C183        C184   1.423       .  A
C183       C1034   1.408   1_545  A
C183        C188   1.453       .  S
C184       C1037   1.442       .  A
C184        C200   1.449       .  S
C185        C186   1.439       .  A
C185       C1036   1.443       .  A
C185       C1030   1.615       .  S
C186        C189   1.448       .  S
C187        C194   1.407       .  A
C187       C1042   1.419       .  A
C188        N205   1.157       .  T
C189        N207   1.157       .  T
C190        C191   1.430       .  A
C190       C1039   1.420       .  A
C190        C195   1.449       .  S
C191       C1044   1.424       .  A
C191        C197   1.448   1_565  S
C192        C193   1.435       .  A
C192       C1043   1.424       .  A
C193        C194   1.410       .  A
C193        C196   1.452       .  S
C194        C198   1.455       .  S
C195        N202   1.157       .  T
C196        N203   1.157       .  T
C197        N201   1.157       .  T
C198        N204   1.157       .  T
C199        N208   1.157       .  T
C200        N206   1.157       .  T
C209        C214   1.420       .  A
C209       C1062   1.420   1_545  A
C209        C227   1.449       .  S
C210        C215   1.536       .  S
C210        C211   1.422       .  A
C210       C1061   1.420       .  A
C211        C212   1.424       .  A
C211        C216   1.451       .  S
C212        C213   1.416       .  A
C212        C228   1.449       .  S
C213       C1066   1.417       .  A
C214       C1065   1.416   1_545  A
C214        C217   1.449       .  S
C215        C218   1.418       .  A
C215       C1074   1.411       .  A
C216        N233   1.157       .  T
C217        N235   1.157       .  T
C218        C219   1.431       .  A
C218        C223   1.453       .  S
C219        C220   1.443       .  A
C219        C225   1.446       .  S
C220       C1073   1.435       .  A
C220       C1030   1.620       .  S
C221        C222   1.416       .  A
C221       C1072   1.436       .  A
C221        C224   1.440       .  S
C222       C1067   1.410       .  A
C222        C226   1.451       .  S
C223        N230   1.157       .  T
C224        N231   1.155       .  T
C225        N229   1.157       .  T
C226        N232   1.157       .  T
C227        N236   1.157       .  T
C228        N234   1.157       .  T
C237        C238   1.402       .  A
C237        C242   1.431       .  A
C237        C255   1.453       .  S
C238        C243   1.522       .  S
C238       C1943   1.394   1_455  A
C239        C240   1.422       .  A
C239       C1942   1.394       .  A
C239        C244   1.461       .  S
C240       C1945   1.465       .  A
C240        C256   1.445       .  S
C241        C242   1.454       .  A
C241       C1944   1.465   1_455  A
C242        C245   1.449       .  S
C243        C250   1.416       .  A
C243       C1950   1.412   1_455  A
C244        N261   1.157       .  T
C245        N263   1.157       .  T
C246        C247   1.415       .  A
C246       C1947   1.412       .  A
C246        C251   1.453       .  S
C247       C1952   1.422       .  A
C247        C253   1.448       .  S
C248        C249   1.420       .  A
C248       C1951   1.422   1_455  A
C249        C250   1.426       .  A
C249        C252   1.448       .  S
C250        C254   1.449       .  S
C251        N258   1.157       .  T
C252        N259   1.157       .  T
C253        N257   1.156       .  T
C254        N260   1.157       .  T
C255        N264   1.157       .  T
C256        N262   1.156       .  T
C265        C270   1.421       .  A
C265       C1970   1.403       .  A
C265        C283   1.457       .  S
C266        C271   1.529   1_655  S
C266        C267   1.413       .  A
C266       C1969   1.403   1_655  A
C267        C268   1.433       .  A
C267        C272   1.453       .  S
C268        C269   1.445   1_655  A
C268        C284   1.447       .  S
C269       C1974   1.454       .  A
C270       C1973   1.454       .  A
C270        C273   1.451       .  S
C271        C278   1.418       .  A
C271       C1978   1.423   1_455  A
C272        N289   1.157       .  T
C273        N291   1.157       .  T
C274        C275   1.423       .  A
C274       C1975   1.423       .  A
C274        C279   1.450       .  S
C275       C1980   1.411       .  A
C275        C281   1.446       .  S
C276        C277   1.413       .  A
C276       C1979   1.411   1_455  A
C277        C278   1.417       .  A
C277        C280   1.449       .  S
C278        C282   1.450       .  S
C279        N286   1.157       .  T
C280        N287   1.156       .  T
C281        N285   1.157       .  T
C282        N288   1.157       .  T
C283        N292   1.157       .  T
C284        N290   1.158       .  T
C293        C294   1.411       .  A
C293        C298   1.406       .  A
C293        C311   1.452       .  S
C294        C299   1.481       .  S
C294        C295   1.406   1_554  A
C295        C296   1.403   1_556  A
C295        C300   1.451       .  S
C296        C297   1.414       .  A
C296        C312   1.451   1_554  S
C297        C298   1.410       .  A
C298        C301   1.450       .  S
C299        C302   1.406   1_554  A
C299        C306   1.403       .  A
C300        N317   1.157       .  T
C301        N319   1.157       .  T
C302        C303   1.407       .  A
C302        C307   1.451       .  S
C303        C304   1.420       .  A
C303        C309   1.452       .  S
C304        C305   1.424   1_556  A
C305        C306   1.403       .  A
C305        C308   1.451       .  S
C306        C310   1.453       .  S
C307        N314   1.157       .  T
C308        N315   1.157       .  T
C309        N313   1.158       .  T
C310        N316   1.157       .  T
C311        N320   1.157       .  T
C312        N318   1.157       .  T
C321        C322   1.408       .  A
C321        C326   1.402       .  A
C321        C339   1.452   1_554  S
C322        C327   1.485       .  S
C322        C323   1.414       .  A
C323        C324   1.407       .  A
C323        C328   1.451       .  S
C324        C325   1.409       .  A
C324        C340   1.450       .  S
C325        C326   1.415       .  A
C326        C329   1.452   1_554  S
C327        C330   1.407       .  A
C327        C334   1.409       .  A
C328        N345   1.157       .  T
C329        N347   1.157       .  T
C330        C331   1.405       .  A
C330        C335   1.453       .  S
C331        C332   1.425       .  A
C331        C337   1.453       .  S
C332        C333   1.417   1_554  A
C333        C334   1.404   1_556  A
C333        C336   1.452       .  S
C334        C338   1.451   1_554  S
C335        N342   1.157       .  T
C336        N343   1.157       .  T
C337        N341   1.158       .  T
C338        N344   1.157       .  T
C339        N348   1.157       .  T
C340        N346   1.157       .  T
C349        C350   1.409       .  A
C349        C354   1.403       .  A
C349        C367   1.451   1_554  S
C350        C355   1.481       .  S
C350        C351   1.408       .  A
C351        C352   1.404       .  A
C351        C356   1.447       .  S
C352        C353   1.410       .  A
C352        C368   1.451       .  S
C353        C354   1.412       .  A
C354        C357   1.452       .  S
C355        C358   1.404       .  A
C355        C362   1.405       .  A
C356        N373   1.156       .  T
C357        N375   1.157   1_554  T
C358        C359   1.406       .  A
C358        C363   1.453       .  S
C359        C360   1.424       .  A
C359        C365   1.450       .  S
C360        C361   1.421       .  A
C361        C362   1.406       .  A
C361        C364   1.452   1_554  S
C362        C366   1.452       .  S
C363        N370   1.157       .  T
C364        N371   1.158       .  T
C365        N369   1.157       .  T
C366        N372   1.157       .  T
C367        N376   1.157       .  T
C368        N374   1.157       .  T
C377        C378   1.406       .  A
C377        C382   1.409       .  A
C377        C395   1.452       .  S
C378        C383   1.486       .  S
C378        C379   1.405       .  A
C379        C380   1.405       .  A
C379        C384   1.454       .  S
C380        C381   1.430       .  A
C380        C396   1.455       .  S
C381        C382   1.426       .  A
C382        C385   1.452   1_554  S
C383        C386   1.410       .  A
C383        C390   1.412       .  A
C384        N401   1.157       .  T
C385        N403   1.157       .  T
C386        C387   1.404       .  A
C386        C391   1.451   1_554  S
C387        C388   1.411       .  A
C387        C393   1.450   1_554  S
C388        C389   1.410       .  A
C389        C390   1.407       .  A
C389        C392   1.451       .  S
C390        C394   1.451       .  S
C391        N398   1.157       .  T
C392        N399   1.157       .  T
C393        N397   1.157       .  T
C394        N400   1.157       .  T
C395        N404   1.157       .  T
C396        N402   1.158   1_554  T
C405        C406   1.421       .  A
C405        C410   1.426       .  A
C405        C423   1.450       .  S
C406        C411   1.528       .  S
C406       C1259   1.415   1_545  A
C407        C408   1.416       .  A
C407       C1258   1.415       .  A
C407        C412   1.450       .  S
C408       C1261   1.417       .  A
C408        C424   1.450       .  S
C409        C410   1.416       .  A
C409       C1260   1.417   1_545  A
C410        C413   1.449       .  S
C411        C414   1.403       .  A
C411        C418   1.412       .  A
C412        N429   1.157       .  T
C413        N431   1.157       .  T
C414        C415   1.420       .  A
C414        C419   1.456       .  S
C415        C416   1.455       .  A
C415        C421   1.453       .  S
C416        C417   1.446       .  A
C416       C1032   1.620       .  S
C417        C418   1.431       .  A
C417       C1272   1.447       .  S
C418        C422   1.453       .  S
C419        N426   1.157       .  T
C420       C1269   1.447       .  S
C420        N427   1.158       .  T
C421        N425   1.157       .  T
C422       N1280   1.157       .  T
C423        N432   1.157       .  T
C424        N430   1.157       .  T
N428       C1274   1.157       .  T
C433        C438   1.427       .  A
C433       C1286   1.419       .  A
C433        C451   1.449       .  S
C434        C439   1.525       .  S
C434        C435   1.415       .  A
C434       C1285   1.419   1_545  A
C435        C436   1.415       .  A
C435        C440   1.452       .  S
C436        C437   1.417       .  A
C436        C452   1.448       .  S
C437       C1290   1.414   1_545  A
C438       C1289   1.415       .  A
C438        C441   1.447       .  S
C439        C442   1.398       .  A
C439       C1298   1.405   1_545  A
C440        N457   1.158       .  T
C441        N459   1.157       .  T
C442        C443   1.424       .  A
C442        C447   1.461       .  S
C443        C444   1.466       .  A
C443        C449   1.449       .  S
C444       C1297   1.447   1_545  A
C444       C1032   1.636       .  S
C445        C446   1.431       .  A
C445       C1296   1.448       .  A
C445        C448   1.449       .  S
C446       C1291   1.405       .  A
C446        C450   1.452       .  S
C447        N454   1.158       .  T
C448        N455   1.157       .  T
C449        N453   1.156       .  T
C450        N456   1.157       .  T
C451        N460   1.157       .  T
C452        N458   1.156       .  T
C461        C466   1.422       .  A
C461       C2166   1.396       .  A
C461        C479   1.458       .  S
C462        C467   1.517   1_455  S
C462        C463   1.401       .  A
C462       C2165   1.396   1_455  A
C463        C464   1.429       .  A
C463        C468   1.455       .  S
C464        C465   1.452       .  A
C464        C480   1.446       .  S
C465       C2170   1.462   1_455  A
C466       C2169   1.462       .  A
C466        C469   1.448       .  S
C467        C470   1.417   1_655  A
C467       C2178   1.409       .  A
C468        N485   1.157       .  T
C469        N487   1.156       .  T
C470        C471   1.422       .  A
C470        C475   1.450       .  S
C471        C472   1.417   1_455  A
C471        C477   1.450       .  S
C472       C2177   1.422       .  A
C473        C474   1.414       .  A
C473       C2176   1.422       .  A
C473        C476   1.450       .  S
C474       C2171   1.409       .  A
C474        C478   1.451       .  S
C475        N482   1.157       .  T
C476        N483   1.156       .  T
C477        N481   1.158       .  T
C478        N484   1.157       .  T
C479        N488   1.157       .  T
C480        N486   1.158       .  T
C489        C494   1.433       .  A
C489       C2194   1.410       .  A
C489        C507   1.451       .  S
C490        C495   1.522       .  S
C490        C491   1.399   1_655  A
C490       C2193   1.410       .  A
C491        C492   1.417       .  A
C491        C496   1.456       .  S
C492        C493   1.454       .  A
C492        C508   1.452       .  S
C493       C2198   1.445   1_455  A
C494       C2197   1.445       .  A
C494        C497   1.446       .  S
C495        C498   1.415   1_655  A
C495       C2206   1.415       .  A
C496        N513   1.157       .  T
C497        N515   1.158       .  T
C498        C499   1.419       .  A
C498        C503   1.448       .  S
C499        C500   1.416   1_455  A
C499        C505   1.451       .  S
C500       C2205   1.416       .  A
C501        C502   1.424       .  A
C501       C2204   1.416       .  A
C501        C504   1.447       .  S
C502       C2199   1.415       .  A
C502        C506   1.450       .  S
C503        N510   1.157       .  T
C504        N511   1.157       .  T
C505        N509   1.157       .  T
C506        N512   1.157       .  T
C507        N516   1.157       .  T
C508        N514   1.157       .  T
C517        C518   1.412       .  A
C517        C522   1.437       .  A
C517        C535   1.452       .  S
C518        C523   1.530       .  S
C518        C519   1.400       .  A
C519        C520   1.421       .  A
C519        C524   1.456       .  S
C520        C521   1.457       .  A
C520        C536   1.451       .  S
C521        C522   1.447       .  A
C521       C1883   1.628       .  S
C522        C525   1.446       .  S
C523        C526   1.414       .  A
C523        C530   1.423       .  A
C524        N541   1.157       .  T
C525        N543   1.158       .  T
C526        C527   1.416       .  A
C526        C531   1.449       .  S
C527        C528   1.416       .  A
C527        C533   1.449       .  S
C528        C529   1.414       .  A
C529        C530   1.428       .  A
C529        C532   1.449       .  S
C530        C534   1.449       .  S
C531        N538   1.157       .  T
C532        N539   1.157       .  T
C533        N537   1.156       .  T
C534        N540   1.157       .  T
C535        N544   1.157       .  T
C536        N542   1.157       .  T
C545        C546   1.395       .  A
C545        C550   1.419       .  A
C545        C563   1.460       .  S
C546        C551   1.520       .  S
C546        C547   1.406       .  A
C547        C548   1.432       .  A
C547        C552   1.452       .  S
C548        C549   1.446       .  A
C548        C564   1.448       .  S
C549        C550   1.464       .  A
C550        C553   1.450       .  S
C551        C554   1.419       .  A
C551        C558   1.410       .  A
C552        N569   1.157       .  T
C553        N571   1.156       .  T
C554        C555   1.427       .  A
C554        C559   1.449       .  S
C555        C556   1.416       .  A
C555        C561   1.449       .  S
C556        C557   1.419       .  A
C557        C558   1.413       .  A
C557        C560   1.450       .  S
C558        C562   1.452       .  S
C559        N566   1.157       .  T
C560        N567   1.156       .  T
C561        N565   1.158       .  T
C562        N568   1.157       .  T
C563        N572   1.157       .  T
C564        N570   1.157       .  T
C573        C574   1.415       .  A
C573        C578   1.414       .  A
C573        C591   1.450       .  S
C574        C579   1.522       .  S
C574        C575   1.422       .  A
C575        C576   1.421       .  A
C575        C580   1.450       .  S
C576        C577   1.411       .  A
C576        C592   1.448       .  S
C577        C578   1.414       .  A
C578        C581   1.450       .  S
C579        C582   1.412       .  A
C579        C586   1.400       .  A
C580        N597   1.157       .  T
C581        N599   1.156       .  T
C582        C583   1.432       .  A
C582        C587   1.454       .  S
C583        C584   1.446       .  A
C583        C589   1.446       .  S
C584        C585   1.456       .  A
C584       C1032   1.618       .  S
C585        C586   1.417       .  A
C585        C588   1.451       .  S
C586        C590   1.458       .  S
C587        N594   1.157       .  T
C588        N595   1.157       .  T
C589       N1445   1.158   1_545  T
C590        N596   1.157       .  T
C591        N600   1.157       .  T
C592        N598   1.157       .  T
N593       C1441   1.158       .  T
C601        C602   1.419       .  A
C601        C606   1.423       .  A
C601        C619   1.449       .  S
C602        C607   1.524       .  S
C602        C603   1.415       .  A
C603        C604   1.416       .  A
C603        C608   1.452       .  S
C604        C605   1.419       .  A
C604        C620   1.451       .  S
C605        C606   1.414       .  A
C606        C609   1.450       .  S
C607        C610   1.399       .  A
C607        C614   1.405       .  A
C608        N625   1.157       .  T
C609        N627   1.157       .  T
C610        C611   1.422       .  A
C610        C615   1.460       .  S
C611        C612   1.464       .  A
C611        C617   1.450       .  S
C612        C613   1.450       .  A
C613        C614   1.431       .  A
C613        C616   1.449       .  S
C614        C618   1.453       .  S
C615        N622   1.157       .  T
C616        N623   1.157       .  T
C617        N621   1.157       .  T
C618        N624   1.157       .  T
C619        N628   1.157       .  T
C620        N626   1.157       .  T
C629        C630   1.407       .  A
C629        C634   1.400       .  A
C629        C647   1.452       .  S
C630        C635   1.478       .  S
C630        C631   1.412       .  A
C631        C632   1.405       .  A
C631        C636   1.452       .  S
C632        C633   1.411       .  A
C632        C648   1.451       .  S
C633        C634   1.413       .  A
C634        C637   1.451       .  S
C635        C638   1.406       .  A
C635        C642   1.406       .  A
C636        N653   1.158       .  T
C637        N655   1.157       .  T
C638        C639   1.403       .  A
C638        C643   1.453       .  S
C639        C640   1.422       .  A
C639        C645   1.453       .  S
C640        C641   1.420       .  A
C641        C642   1.402       .  A
C641        C644   1.453       .  S
C642        C646   1.452       .  S
C643        N650   1.157       .  T
C644        N651   1.157       .  T
C645        N649   1.158       .  T
C646        N652   1.157       .  T
C647        N656   1.157       .  T
C648        N654   1.157       .  T
C657        C658   1.405       .  A
C657        C662   1.409       .  A
C657        C675   1.453       .  S
C658        C663   1.488       .  S
C658        C659   1.404       .  A
C659        C660   1.408       .  A
C659        C664   1.450       .  S
C660        C661   1.422       .  A
C660        C676   1.452       .  S
C661        C662   1.425       .  A
C662        C665   1.451       .  S
C663        C666   1.407       .  A
C663        C670   1.412       .  A
C664        N681   1.157       .  T
C665        N683   1.158       .  T
C666        C667   1.407       .  A
C666        C671   1.450       .  S
C667        C668   1.414       .  A
C667        C673   1.450       .  S
C668        C669   1.410       .  A
C669        C670   1.408       .  A
C669        C672   1.451       .  S
C670        C674   1.451       .  S
C671        N678   1.157       .  T
C672        N679   1.157       .  T
C673        N677   1.157       .  T
C674        N680   1.157       .  T
C675        N684   1.157       .  T
C676        N682   1.157       .  T
C685        C686   1.410       .  A
C685        C690   1.405       .  A
C685        C703   1.451       .  S
C686        C691   1.494       .  S
C686        C687   1.414       .  A
C687        C688   1.411       .  A
C687        C692   1.450       .  S
C688        C689   1.410       .  A
C688        C704   1.450       .  S
C689        C690   1.412       .  A
C690        C693   1.451       .  S
C691        C694   1.407       .  A
C691        C698   1.407       .  A
C692        N709   1.157       .  T
C693        N711   1.157       .  T
C694        C695   1.412       .  A
C694        C699   1.451       .  S
C695        C696   1.425       .  A
C695        C701   1.451       .  S
C696        C697   1.426       .  A
C697        C698   1.408       .  A
C697        C700   1.453       .  S
C698        C702   1.453       .  S
C699        N706   1.157       .  T
C700        N707   1.158       .  T
C701        N705   1.158       .  T
C702        N708   1.157       .  T
C703        N712   1.157       .  T
C704        N710   1.157       .  T
C713        C714   1.406       .  A
C713        C718   1.404       .  A
C713        C731   1.452       .  S
C714        C719   1.485       .  S
C714        C715   1.407       .  A
C715        C716   1.406       .  A
C715        C720   1.452       .  S
C716        C717   1.419       .  A
C716        C732   1.453       .  S
C717        C718   1.421       .  A
C718        C721   1.451       .  S
C719        C722   1.409       .  A
C719        C726   1.410       .  A
C720        N737   1.157       .  T
C721        N739   1.157       .  T
C722        C723   1.404       .  A
C722        C727   1.452       .  S
C723        C724   1.415       .  A
C723        C729   1.452       .  S
C724        C725   1.411       .  A
C725        C726   1.406       .  A
C725        C728   1.450       .  S
C726        C730   1.450       .  S
C727        N734   1.157       .  T
C728        N735   1.157       .  T
C729        N733   1.157       .  T
C730        N736   1.157       .  T
C731        N740   1.157       .  T
C732        N738   1.157       .  T
C741        C742   1.407       .  A
C741        C746   1.411       .  A
C741        C759   1.454       .  S
C742        C747   1.515       .  S
C742        C743   1.417       .  A
C743        C744   1.425       .  A
C743        C748   1.449       .  S
C744        C745   1.417       .  A
C744        C760   1.448       .  S
C745        C746   1.422       .  A
C746        C749   1.446       .  S
C747        C750   1.402       .  A
C747        C754   1.395       .  A
C748        N765   1.157       .  T
C749        N767   1.155       .  T
C750        C751   1.427       .  A
C750        C755   1.451       .  S
C751        C752   1.448       .  A
C751        C757   1.450       .  S
C752        C753   1.464       .  A
C753        C754   1.419       .  A
C753        C756   1.449       .  S
C754        C758   1.461       .  S
C755        N762   1.157       .  T
C756        N763   1.157       .  T
C757       N2465   1.157       .  T
C758        N764   1.157       .  T
C759        N768   1.157       .  T
C760        N766   1.157       .  T
N761       C2461   1.157       .  T
C769        C770   1.416       .  A
C769        C774   1.419       .  A
C769        C787   1.449       .  S
C770        C775   1.530       .  S
C770        C771   1.419       .  A
C771        C772   1.425       .  A
C771        C776   1.450       .  S
C772        C773   1.416       .  A
C772        C788   1.448       .  S
C773        C774   1.418       .  A
C774        C777   1.450       .  S
C775        C778   1.411       .  A
C775        C782   1.403       .  A
C776        N793   1.157       .  T
C777        N795   1.156       .  T
C778        C779   1.434       .  A
C778        C783   1.453       .  S
C779        C780   1.449       .  A
C779        C785   1.447       .  S
C780        C781   1.454       .  A
C780       C1881   1.626       .  S
C781        C782   1.423       .  A
C781        C784   1.451       .  S
C782        C786   1.456       .  S
C783        N790   1.157       .  T
C784        N791   1.157       .  T
C785       N2493   1.159       .  T
C786        N792   1.157       .  T
C787        N796   1.157       .  T
C788        N794   1.157       .  T
N789       C2489   1.159   1_455  T
C797        C798   1.420       .  A
C797        C802   1.420       .  A
C797        C815   1.452       .  S
C798        C803   1.531       .  S
C798        C799   1.422       .  A
C799        C800   1.424       .  A
C799        C804   1.448       .  S
C800        C801   1.412       .  A
C800        C816   1.449       .  S
C801        C802   1.415       .  A
C802        C805   1.450       .  S
C803        C806   1.417       .  A
C803        C810   1.407       .  A
C804        N821   1.157       .  T
C805        N823   1.157       .  T
C806        C807   1.437       .  A
C806        C811   1.447       .  S
C807        C808   1.439       .  A
C807        C813   1.446       .  S
C808        C809   1.439       .  A
C808       C1030   1.626       .  S
C809        C810   1.411       .  A
C809        C812   1.447       .  S
C810        C814   1.452       .  S
C811        N818   1.157       .  T
C812        N819   1.157       .  T
C813        N817   1.157       .  T
C814        N820   1.157       .  T
C815        N824   1.157       .  T
C816        N822   1.157       .  T
C825        C826   1.413       .  A
C825        C830   1.418       .  A
C825        C843   1.452       .  S
C826        C831   1.532       .  S
C826        C827   1.421       .  A
C827        C828   1.429       .  A
C827        C832   1.448       .  S
C828        C829   1.418       .  A
C828        C844   1.449       .  S
C829        C830   1.422       .  A
C830        C833   1.446       .  S
C831        C834   1.408       .  A
C831        C838   1.407       .  A
C832        N849   1.157       .  T
C833        N851   1.155       .  T
C834        C835   1.432       .  A
C834        C839   1.451       .  S
C835        C836   1.444       .  A
C835        C841   1.444       .  S
C836        C837   1.449       .  A
C837        C838   1.427       .  A
C837        C840   1.445       .  S
C838        C842   1.456       .  S
C839        N846   1.157       .  T
C840        N847   1.157       .  T
C841        N845   1.157       .  T
C842        N848   1.158       .  T
C843        N852   1.157       .  T
C844        N850   1.157       .  T
O853        C864   1.308       .  A
O853       Eu889   2.553       .  S
O854        C865   1.304       .  A
O854       Eu888   2.534       .  S
O855        C866   1.286       .  A
O855       Eu861   2.433       .  S
O856        C867   1.285       .  A
O856       Eu861   2.436       .  S
O857        C867   1.291       .  A
O857       Eu891   2.463       .  S
O858        C866   1.282       .  A
O858       Eu890   2.419       .  S
O859        C865   1.285       .  A
O859       Eu861   2.422       .  S
O860        C864   1.291       .  A
O860       Eu861   2.455       .  S
Eu861       O871   2.344       .  S
Eu861       O863   2.342       .  S
Eu861       O862   2.351       .  S
Eu861       O869   2.362       .  S
O862       Eu891   2.338       .  S
O862       Eu888   2.381       .  S
O863       Eu889   2.370       .  S
O863       Eu890   2.352       .  S
C864       C1681   1.527       .  S
C865       C1429   1.495       .  S
C866       C1492   1.484       .  S
C867       C1513   1.499       .  S
H868        O869   0.952       .  S
O869       Eu890   2.352       .  S
O869       Eu888   2.379       .  S
H870        O871   0.970       .  S
O871       Eu889   2.379       .  S
O871       Eu891   2.356       .  S
O872        C895   1.306       .  A
O872       Eu888   2.543       .  S
O873        C896   1.307       .  A
O873       Eu889   2.546       .  S
O874        C897   1.285       .  A
O874       Eu890   2.428       .  S
O875        C898   1.288       .  A
O875       Eu891   2.439       .  S
O876        C899   1.287       .  A
O876       Eu891   2.426       .  S
O877        C900   1.284       .  A
O877       Eu890   2.423       .  S
O878        C901   1.286       .  A
O878       Eu892   2.438       .  S
O879        C902   1.286       .  A
O879       Eu892   2.435       .  S
O880        C901   1.285       .  A
O880       Eu890   2.432       .  S
O881        C902   1.289       .  A
O881       Eu891   2.457       .  S
O882        C897   1.307       .  A
O882       Eu888   2.551       .  S
O883        C900   1.310       .  A
O883       Eu889   2.566       .  S
O884        C899   1.306       .  A
O884       Eu889   2.543       .  S
O885        C898   1.304       .  A
O885       Eu888   2.535       .  S
O886        C895   1.287       .  A
O886       Eu892   2.434       .  S
O887        C896   1.287       .  A
O887       Eu892   2.436       .  S
Eu888       O906   2.381       .  S
Eu888       O894   2.376       .  S
Eu889       O893   2.377       .  S
Eu889       O904   2.379       .  S
Eu890       O904   2.350       .  S
Eu890       O894   2.341       .  S
Eu891       O893   2.344       .  S
Eu891       O906   2.354       .  S
Eu892       O893   2.338       .  S
Eu892       O904   2.354       .  S
Eu892       O906   2.354       .  S
Eu892       O894   2.349       .  S
C895       C1457   1.507       .  S
C896       C1653   1.507       .  S
C897       C1380   1.506       .  S
C898       C1408   1.506       .  S
C899       C1597   1.509       .  S
C900       C1625   1.510       .  S
C901       C1569   1.485       .  S
C902       C1548   1.505       .  S
H903        O904   0.967       .  S
H905        O906   0.959       .  S
N907        H939   1.038       .  S
N907       C2616   1.353   1_455  A
N907        C911   1.353       .  A
N908        C916   1.350       .  A
N909        H940   1.037       .  S
N909       C2618   1.352   1_455  A
N909        C913   1.353       .  A
N910        C918   1.349       .  A
C911        C919   1.387       .  A
C911        C927   1.414       .  A
C912       N2611   1.353       .  A
C912        C928   1.414       .  A
C912        C920   1.387       .  A
C913        C921   1.386       .  A
C913        C930   1.413       .  A
C914       N2613   1.352       .  A
C914        C929   1.417       .  A
C914        C922   1.389       .  A
C915        C927   1.409       .  A
C915        C923   1.386       .  A
C916        C930   1.412       .  A
C916        C924   1.386       .  A
C917        C925   1.386       .  A
C917        C928   1.409       .  A
C918        C926   1.387       .  A
C918        C929   1.408       .  A
C919       C2624   1.369   1_455  A
C919        H931   1.082       .  S
C920       C2623   1.369       .  A
C920        H932   1.082       .  S
C921       C2626   1.369   1_455  A
C921        H933   1.082       .  S
C922       C2625   1.369       .  A
C922        H934   1.082       .  S
C923        H935   1.082       .  S
C924        H936   1.083       .  S
C925        H937   1.083       .  S
C926        H938   1.082       .  S
C927       C1541   1.489       .  S
C928       C1576   1.489       .  S
C929       C1485   1.486       .  S
C930       C1520   1.492       .  S
O941        C952   1.309       .  A
O942        C953   1.306   1_455  A
O942       Eu976   2.546   1_455  S
O943        C954   1.284       .  A
O943       Eu949   2.429   1_455  S
O944        C955   1.288       .  A
O944      Eu2653   2.445       .  S
O945        C955   1.280       .  A
O946        C954   1.289       .  A
O947        C953   1.290       .  A
O947       Eu949   2.452   1_554  S
O948        C952   1.285       .  A
O948       Eu949   2.426       .  S
Eu949      O2648   2.445       .  S
Eu949      O2663   2.355       .  S
Eu949       O951   2.356   1_655  S
Eu949      O2654   2.343   1_556  S
Eu949       O957   2.350   1_656  S
O950      Eu2653   2.343   1_554  S
O950      Eu2680   2.377       .  S
C952       C1352   1.505       .  S
C953       C1100   1.520   1_655  S
C954       C1156   1.489       .  S
C955       C1184   1.486   1_556  S
H956        O957   0.967       .  S
O957       Eu976   2.377   1_455  S
H958        O959   0.962       .  S
O959      Eu2653   2.355       .  S
O959      Eu1829   2.376       .  S
O960        C983   1.304       .  A
O961        C984   1.304       .  A
O961       Eu977   2.527       .  S
O962        C985   1.284       .  A
O963        C986   1.284       .  A
O964        C987   1.286       .  A
O964       Eu979   2.433   1_556  S
O965        C988   1.289       .  A
O965       Eu978   2.446       .  S
O966        C989   1.281       .  A
O966       Eu980   2.417   1_455  S
O967        C990   1.286       .  A
O967      Eu2684   2.440       .  S
O968        C989   1.288       .  A
O968       Eu978   2.455   1_554  S
O969        C990   1.286       .  A
O969       Eu979   2.439       .  S
O970        C985   1.309       .  A
O970       Eu976   2.564   1_455  S
O971        C988   1.307       .  A
O971       Eu977   2.552   1_455  S
O972        C987   1.307       .  A
O972      Eu2681   2.546       .  S
O973        C986   1.311       .  A
O973      Eu2680   2.568       .  S
O974        C983   1.289       .  A
O974       Eu980   2.446   1_455  S
O975        C984   1.290       .  A
O975       Eu980   2.445   1_556  S
Eu976      O2677   2.568       .  S
Eu976      O2654   2.377       .  S
Eu976      O1846   2.381   1_565  S
Eu977      O2676   2.546       .  S
Eu977      O1811   2.380       .  S
Eu977      O2685   2.388       .  S
Eu977       O992   2.380   1_655  S
Eu978       O992   2.342       .  S
Eu978       O982   2.341   1_556  S
Eu979       O981   2.340   1_554  S
Eu979       O994   2.344       .  S
Eu980      O2671   2.440       .  S
Eu980      O2685   2.347   1_554  S
Eu980       O992   2.351   1_654  S
Eu980      O2698   2.344       .  S
Eu980       O982   2.340   1_655  S
O981      Eu2681   2.388       .  S
O981      Eu2684   2.347   1_556  S
C983       C1128   1.504       .  S
C984       C1324   1.507       .  S
C985       C1044   1.538       .  S
C986       C1065   1.508       .  S
C987       C1261   1.506       .  S
C988       C1289   1.513       .  S
C989       C1233   1.508       .  S
C990       C1212   1.493       .  S
H991        O992   0.969       .  S
H993        O994   0.968       .  S
O994      Eu1828   2.379       .  S
O994      Eu2684   2.344       .  S
N995       H1027   1.038       .  S
N995       C1000   1.351       .  A
N995        C999   1.350       .  A
N996       C1003   1.348       .  A
N996       C1004   1.348       .  A
N997       H1028   1.036       .  S
N997       C1002   1.353       .  A
N997       C1001   1.353       .  A
N998       C1005   1.349       .  A
N998       C1006   1.349       .  A
C999       C1007   1.388       .  A
C999       C1015   1.411       .  A
C1000      C1016   1.410       .  A
C1000      C1008   1.387       .  A
C1001      C1009   1.387       .  A
C1001      C1018   1.415       .  A
C1002      C1017   1.414       .  A
C1002      C1010   1.387       .  A
C1003      C1015   1.408       .  A
C1003      C1011   1.387       .  A
C1004      C1018   1.409       .  A
C1004      C1012   1.387       .  A
C1005      C1013   1.386       .  A
C1005      C1016   1.410       .  A
C1006      C1014   1.386       .  A
C1006      C1017   1.410       .  A
C1007      C1008   1.370       .  A
C1007      H1019   1.083       .  S
C1008      H1020   1.082       .  S
C1009      C1010   1.368       .  A
C1009      H1021   1.082       .  S
C1010      H1022   1.082       .  S
C1011      C1012   1.369       .  A
C1011      H1023   1.083       .  S
C1012      H1024   1.082       .  S
C1013      C1014   1.371       .  A
C1013      H1025   1.083       .  S
C1014      H1026   1.083       .  S
C1015      C1205   1.482       .  S
C1016      C1240   1.487       .  S
C1017      C1149   1.487       .  S
C1018      C1177   1.487       .  S
C1029      C1093   1.644       .  S
C1029      C1121   1.621       .  S
C1029      C1604   1.629       .  S
C1029      C3336   1.627   1_455  S
C1030      C1688   1.629       .  S
C1031      C1317   1.637       .  S
C1031      C1345   1.614       .  S
C1031      C3077   1.630   1_455  S
C1031      C1401   1.635       .  S
C1032      C1464   1.640   1_545  S
C1033      C1034   1.413       .  A
C1033      C1038   1.423       .  A
C1033      C1051   1.453       .  S
C1034      C1039   1.526       .  S
C1035      C1036   1.423       .  A
C1035      C1040   1.453       .  S
C1036      C1052   1.448       .  S
C1037      C1038   1.438   1_545  A
C1038      C1041   1.448       .  S
C1039      C1046   1.407       .  A
C1040      N1057   1.157       .  T
C1041      N1059   1.157       .  T
C1042      C1043   1.430       .  A
C1042      C1047   1.449       .  S
C1043      C1049   1.448       .  S
C1044      C1045   1.436       .  A
C1045      C1046   1.412       .  A
C1045      C1048   1.451       .  S
C1046      C1050   1.455       .  S
C1047      N1054   1.157       .  T
C1048      N1055   1.157       .  T
C1049      N1053   1.157       .  T
C1050      N1056   1.158       .  T
C1051      N1060   1.157       .  T
C1052      N1058   1.157       .  T
C1061      C1066   1.421       .  A
C1061      C1079   1.449       .  S
C1062      C1067   1.535       .  S
C1062      C1063   1.422       .  A
C1063      C1064   1.424       .  A
C1063      C1068   1.451       .  S
C1064      C1065   1.416       .  A
C1064      C1080   1.449       .  S
C1066      C1069   1.450       .  S
C1067      C1070   1.416   1_565  A
C1068      N1085   1.157       .  T
C1069      N1087   1.157       .  T
C1070      C1071   1.431       .  A
C1070      C1075   1.453       .  S
C1071      C1072   1.444   1_545  A
C1071      C1077   1.446       .  S
C1073      C1074   1.415       .  A
C1073      C1076   1.441       .  S
C1074      C1078   1.450       .  S
C1075      N1082   1.157       .  T
C1076      N1083   1.156       .  T
C1077      N1081   1.157       .  T
C1078      N1084   1.157       .  T
C1079      N1088   1.157       .  T
C1080      N1086   1.157       .  T
C1089      C1090   1.403       .  A
C1089      C1094   1.433       .  A
C1089      C1107   1.452       .  S
C1090      C1095   1.527       .  S
C1090      C2795   1.395   1_455  A
C1091      C2794   1.395       .  A
C1091      C1092   1.425       .  A
C1091      C1096   1.461       .  S
C1092      C2797   1.465       .  A
C1092      C1108   1.444       .  S
C1093      C2796   1.465   1_455  A
C1093      C1094   1.454       .  A
C1094      C1097   1.448       .  S
C1095      C2802   1.412   1_455  A
C1095      C1102   1.417       .  A
C1096      N1113   1.157       .  T
C1097      N1115   1.157       .  T
C1098      C2799   1.412       .  A
C1098      C1099   1.416       .  A
C1098      C1103   1.453       .  S
C1099      C2804   1.422       .  A
C1099      C1105   1.447       .  S
C1100      C2803   1.422   1_455  A
C1100      C1101   1.420       .  A
C1101      C1102   1.428       .  A
C1101      C1104   1.448       .  S
C1102      C1106   1.449       .  S
C1103      N1110   1.157       .  T
C1104      N1111   1.157       .  T
C1105      N1109   1.155       .  T
C1106      N1112   1.157       .  T
C1107      N1116   1.157       .  T
C1108      N1114   1.156       .  T
C1117      C2822   1.403       .  A
C1117      C1122   1.421       .  A
C1117      C1135   1.457       .  S
C1118      C1123   1.530       .  S
C1118      C2821   1.403       .  A
C1118      C1119   1.413       .  A
C1119      C1120   1.434       .  A
C1119      C1124   1.453   1_455  S
C1120      C1121   1.445       .  A
C1120      C1136   1.447   1_455  S
C1121      C2826   1.455       .  A
C1122      C2825   1.455       .  A
C1122      C1125   1.450       .  S
C1123      C2830   1.423   1_455  A
C1123      C1130   1.419       .  A
C1124      N1141   1.157       .  T
C1125      N1143   1.157       .  T
C1126      C2827   1.423       .  A
C1126      C1127   1.422       .  A
C1126      C1131   1.450       .  S
C1127      C2832   1.410       .  A
C1127      C1133   1.446       .  S
C1128      C2831   1.410   1_455  A
C1128      C1129   1.413       .  A
C1129      C1130   1.418       .  A
C1129      C1132   1.449       .  S
C1130      C1134   1.450       .  S
C1131      N1138   1.157       .  T
C1132      N1139   1.156       .  T
C1133      N1137   1.157       .  T
C1134      N1140   1.157       .  T
C1135      N1144   1.157       .  T
C1136      N1142   1.158       .  T
C1145      C1146   1.411       .  A
C1145      C1150   1.407       .  A
C1145      C1163   1.452       .  S
C1146      C1151   1.482       .  S
C1146      C1147   1.406       .  A
C1147      C1148   1.403       .  A
C1147      C1152   1.451   1_554  S
C1148      C1149   1.414       .  A
C1148      C1164   1.451   1_554  S
C1149      C1150   1.411       .  A
C1150      C1153   1.450       .  S
C1151      C1154   1.407   1_554  A
C1151      C1158   1.404       .  A
C1152      N1169   1.157       .  T
C1153      N1171   1.157       .  T
C1154      C1155   1.407       .  A
C1154      C1159   1.451       .  S
C1155      C1156   1.419       .  A
C1155      C1161   1.452       .  S
C1156      C1157   1.424   1_556  A
C1157      C1158   1.403       .  A
C1157      C1160   1.451       .  S
C1158      C1162   1.453       .  S
C1159      N1166   1.157       .  T
C1160      N1167   1.157       .  T
C1161      N1165   1.158       .  T
C1162      N1168   1.157       .  T
C1163      N1172   1.157       .  T
C1164      N1170   1.157       .  T
C1173      C1174   1.408       .  A
C1173      C1178   1.402       .  A
C1173      C1191   1.452   1_554  S
C1174      C1179   1.484       .  S
C1174      C1175   1.414       .  A
C1175      C1176   1.407       .  A
C1175      C1180   1.451       .  S
C1176      C1177   1.409       .  A
C1176      C1192   1.451       .  S
C1177      C1178   1.415       .  A
C1178      C1181   1.451   1_554  S
C1179      C1182   1.406       .  A
C1179      C1186   1.409       .  A
C1180      N1197   1.157       .  T
C1181      N1199   1.157       .  T
C1182      C1183   1.404       .  A
C1182      C1187   1.453       .  S
C1183      C1184   1.424       .  A
C1183      C1189   1.453       .  S
C1184      C1185   1.418   1_554  A
C1185      C1186   1.404   1_556  A
C1185      C1188   1.453       .  S
C1186      C1190   1.451   1_554  S
C1187      N1194   1.157       .  T
C1188      N1195   1.157       .  T
C1189      N1193   1.158       .  T
C1190      N1196   1.157       .  T
C1191      N1200   1.157       .  T
C1192      N1198   1.157       .  T
C1201      C1202   1.409       .  A
C1201      C1206   1.403       .  A
C1201      C1219   1.451   1_554  S
C1202      C1207   1.482       .  S
C1202      C1203   1.408       .  A
C1203      C1204   1.404       .  A
C1203      C1208   1.447       .  S
C1204      C1205   1.409       .  A
C1204      C1220   1.451       .  S
C1205      C1206   1.411       .  A
C1206      C1209   1.452       .  S
C1207      C1210   1.404       .  A
C1207      C1214   1.405       .  A
C1208      N1225   1.156       .  T
C1209      N1227   1.157   1_554  T
C1210      C1211   1.406       .  A
C1210      C1215   1.453       .  S
C1211      C1212   1.425       .  A
C1211      C1217   1.451       .  S
C1212      C1213   1.422       .  A
C1213      C1214   1.406       .  A
C1213      C1216   1.452   1_554  S
C1214      C1218   1.452       .  S
C1215      N1222   1.157       .  T
C1216      N1223   1.158       .  T
C1217      N1221   1.157       .  T
C1218      N1224   1.157       .  T
C1219      N1228   1.157       .  T
C1220      N1226   1.157       .  T
C1229      C1230   1.405       .  A
C1229      C1234   1.409       .  A
C1229      C1247   1.452       .  S
C1230      C1235   1.488       .  S
C1230      C1231   1.404       .  A
C1231      C1232   1.407       .  A
C1231      C1236   1.454       .  S
C1232      C1233   1.431       .  A
C1232      C1248   1.454       .  S
C1233      C1234   1.427       .  A
C1234      C1237   1.451       .  S
C1235      C1238   1.410       .  A
C1235      C1242   1.412       .  A
C1236      N1253   1.157       .  T
C1237      N1255   1.157   1_554  T
C1238      C1239   1.405       .  A
C1238      C1243   1.451   1_554  S
C1239      C1240   1.410       .  A
C1239      C1245   1.450   1_554  S
C1240      C1241   1.410       .  A
C1241      C1242   1.408       .  A
C1241      C1244   1.451       .  S
C1242      C1246   1.451       .  S
C1243      N1250   1.157       .  T
C1244      N1251   1.157       .  T
C1245      N1249   1.157       .  T
C1246      N1252   1.157       .  T
C1247      N1256   1.157       .  T
C1248      N1254   1.158   1_554  T
C1257      C1258   1.420       .  A
C1257      C1262   1.425       .  A
C1257      C1275   1.450       .  S
C1258      C1263   1.526       .  S
C1259      C1260   1.416       .  A
C1259      C1264   1.450       .  S
C1260      C1276   1.450       .  S
C1261      C1262   1.416       .  A
C1262      C1265   1.449       .  S
C1263      C1266   1.403       .  A
C1263      C1270   1.411       .  A
C1264      N1281   1.157       .  T
C1265      N1283   1.157       .  T
C1266      C1267   1.420       .  A
C1266      C1271   1.456       .  S
C1267      C1268   1.455       .  A
C1267      C1273   1.453       .  S
C1268      C1269   1.445       .  A
C1269      C1270   1.431       .  A
C1270      C1274   1.453       .  S
C1271      N1278   1.157       .  T
C1272      N1279   1.158       .  T
C1273      N1277   1.158       .  T
C1275      N1284   1.157       .  T
C1276      N1282   1.157       .  T
C1285      C1290   1.425       .  A
C1285      C1303   1.449       .  S
C1286      C1291   1.526       .  S
C1286      C1287   1.414       .  A
C1287      C1288   1.416       .  A
C1287      C1292   1.453       .  S
C1288      C1289   1.418       .  A
C1288      C1304   1.448       .  S
C1290      C1293   1.447       .  S
C1291      C1294   1.398       .  A
C1292      N1309   1.158       .  T
C1293      N1311   1.157       .  T
C1294      C1295   1.424       .  A
C1294      C1299   1.460       .  S
C1295      C1296   1.465       .  A
C1295      C1301   1.448       .  S
C1297      C1298   1.430       .  A
C1297      C1300   1.449       .  S
C1298      C1302   1.452       .  S
C1299      N1306   1.157       .  T
C1300      N1307   1.157       .  T
C1301      N1305   1.156       .  T
C1302      N1308   1.157       .  T
C1303      N1312   1.157       .  T
C1304      N1310   1.156       .  T
C1313      C3018   1.395       .  A
C1313      C1318   1.421       .  A
C1313      C1331   1.458       .  S
C1314      C1319   1.516   1_455  S
C1314      C3017   1.395   1_455  A
C1314      C1315   1.399       .  A
C1315      C1316   1.428       .  A
C1315      C1320   1.456       .  S
C1316      C1317   1.453       .  A
C1316      C1332   1.446       .  S
C1317      C3022   1.461   1_455  A
C1318      C3021   1.461       .  A
C1318      C1321   1.447       .  S
C1319      C1322   1.416   1_655  A
C1319      C3030   1.408       .  A
C1320      N1337   1.157       .  T
C1321      N1339   1.156       .  T
C1322      C1323   1.422       .  A
C1322      C1327   1.450       .  S
C1323      C1324   1.417   1_455  A
C1323      C1329   1.450       .  S
C1324      C3029   1.423       .  A
C1325      C3028   1.423       .  A
C1325      C1326   1.413       .  A
C1325      C1328   1.450       .  S
C1326      C3023   1.408       .  A
C1326      C1330   1.452       .  S
C1327      N1334   1.157       .  T
C1328      N1335   1.156       .  T
C1329      N1333   1.158       .  T
C1330      N1336   1.157       .  T
C1331      N1340   1.157       .  T
C1332      N1338   1.158       .  T
C1341      C3046   1.409       .  A
C1341      C1346   1.432       .  A
C1341      C1359   1.451       .  S
C1342      C1347   1.521       .  S
C1342      C3045   1.409       .  A
C1342      C1343   1.399   1_655  A
C1343      C1344   1.416       .  A
C1343      C1348   1.456       .  S
C1344      C1345   1.453       .  A
C1344      C1360   1.452       .  S
C1345      C3050   1.444   1_455  A
C1346      C3049   1.444       .  A
C1346      C1349   1.446       .  S
C1347      C1350   1.414   1_655  A
C1347      C3058   1.415       .  A
C1348      N1365   1.157       .  T
C1349      N1367   1.158       .  T
C1350      C1351   1.418       .  A
C1350      C1355   1.448       .  S
C1351      C1352   1.416   1_455  A
C1351      C1357   1.451       .  S
C1352      C3057   1.416       .  A
C1353      C3056   1.416       .  A
C1353      C1354   1.424       .  A
C1353      C1356   1.446       .  S
C1354      C3051   1.415       .  A
C1354      C1358   1.450       .  S
C1355      N1362   1.157       .  T
C1356      N1363   1.156       .  T
C1357      N1361   1.157       .  T
C1358      N1364   1.157       .  T
C1359      N1368   1.157       .  T
C1360      N1366   1.157       .  T
C1369      C1370   1.413       .  A
C1369      C1374   1.437       .  A
C1369      C1387   1.452       .  S
C1370      C1375   1.532       .  S
C1370      C1371   1.400       .  A
C1371      C1372   1.422       .  A
C1371      C1376   1.456       .  S
C1372      C1373   1.457       .  A
C1372      C1388   1.451       .  S
C1373      C1374   1.447       .  A
C1373      C2735   1.630       .  S
C1374      C1377   1.445       .  S
C1375      C1378   1.415       .  A
C1375      C1382   1.423       .  A
C1376      N1393   1.157       .  T
C1377      N1395   1.158       .  T
C1378      C1379   1.417       .  A
C1378      C1383   1.449       .  S
C1379      C1380   1.415       .  A
C1379      C1385   1.450       .  S
C1380      C1381   1.414       .  A
C1381      C1382   1.428       .  A
C1381      C1384   1.450       .  S
C1382      C1386   1.449       .  S
C1383      N1390   1.157       .  T
C1384      N1391   1.157       .  T
C1385      N1389   1.156       .  T
C1386      N1392   1.157       .  T
C1387      N1396   1.157       .  T
C1388      N1394   1.157       .  T
C1397      C1398   1.396       .  A
C1397      C1402   1.418       .  A
C1397      C1415   1.459       .  S
C1398      C1403   1.520       .  S
C1398      C1399   1.406       .  A
C1399      C1400   1.432       .  A
C1399      C1404   1.452       .  S
C1400      C1401   1.445       .  A
C1400      C1416   1.448       .  S
C1401      C1402   1.464       .  A
C1402      C1405   1.451       .  S
C1403      C1406   1.419       .  A
C1403      C1410   1.411       .  A
C1404      N1421   1.157       .  T
C1405      N1423   1.156       .  T
C1406      C1407   1.426       .  A
C1406      C1411   1.449       .  S
C1407      C1408   1.416       .  A
C1407      C1413   1.449       .  S
C1408      C1409   1.418       .  A
C1409      C1410   1.413       .  A
C1409      C1412   1.450       .  S
C1410      C1414   1.451       .  S
C1411      N1418   1.157       .  T
C1412      N1419   1.157       .  T
C1413      N1417   1.157       .  T
C1414      N1420   1.157       .  T
C1415      N1424   1.157       .  T
C1416      N1422   1.157       .  T
C1425      C1426   1.416       .  A
C1425      C1430   1.414       .  A
C1425      C1443   1.450       .  S
C1426      C1431   1.522       .  S
C1426      C1427   1.423       .  A
C1427      C1428   1.421       .  A
C1427      C1432   1.450       .  S
C1428      C1429   1.409       .  A
C1428      C1444   1.448       .  S
C1429      C1430   1.414       .  A
C1430      C1433   1.450       .  S
C1431      C1434   1.412       .  A
C1431      C1438   1.399       .  A
C1432      N1449   1.157       .  T
C1433      N1451   1.156       .  T
C1434      C1435   1.433       .  A
C1434      C1439   1.453       .  S
C1435      C1436   1.446       .  A
C1435      C1441   1.446       .  S
C1436      C1437   1.456       .  A
C1437      C1438   1.417       .  A
C1437      C1440   1.450       .  S
C1438      C1442   1.458       .  S
C1439      N1446   1.157       .  T
C1440      N1447   1.157       .  T
C1442      N1448   1.157       .  T
C1443      N1452   1.157       .  T
C1444      N1450   1.157       .  T
C1453      C1454   1.418       .  A
C1453      C1458   1.424       .  A
C1453      C1471   1.448       .  S
C1454      C1459   1.525       .  S
C1454      C1455   1.415       .  A
C1455      C1456   1.417       .  A
C1455      C1460   1.452       .  S
C1456      C1457   1.420       .  A
C1456      C1472   1.451       .  S
C1457      C1458   1.415       .  A
C1458      C1461   1.449       .  S
C1459      C1462   1.398       .  A
C1459      C1466   1.406       .  A
C1460      N1477   1.157       .  T
C1461      N1479   1.157       .  T
C1462      C1463   1.422       .  A
C1462      C1467   1.460       .  S
C1463      C1464   1.464       .  A
C1463      C1469   1.450       .  S
C1464      C1465   1.450       .  A
C1465      C1466   1.432       .  A
C1465      C1468   1.449       .  S
C1466      C1470   1.453       .  S
C1467      N1474   1.157       .  T
C1468      N1475   1.157   1_565  T
C1469      N1473   1.157       .  T
C1470      N1476   1.157       .  T
C1471      N1480   1.157       .  T
C1472      N1478   1.157       .  T
C1481      C1482   1.407       .  A
C1481      C1486   1.400       .  A
C1481      C1499   1.452       .  S
C1482      C1487   1.479       .  S
C1482      C1483   1.412       .  A
C1483      C1484   1.405       .  A
C1483      C1488   1.452       .  S
C1484      C1485   1.411       .  A
C1484      C1500   1.450       .  S
C1485      C1486   1.413       .  A
C1486      C1489   1.451       .  S
C1487      C1490   1.407       .  A
C1487      C1494   1.406       .  A
C1488      N1505   1.157       .  T
C1489      N1507   1.157       .  T
C1490      C1491   1.404       .  A
C1490      C1495   1.453       .  S
C1491      C1492   1.422       .  A
C1491      C1497   1.453       .  S
C1492      C1493   1.419       .  A
C1493      C1494   1.402       .  A
C1493      C1496   1.453       .  S
C1494      C1498   1.452       .  S
C1495      N1502   1.157       .  T
C1496      N1503   1.157       .  T
C1497      N1501   1.158       .  T
C1498      N1504   1.157       .  T
C1499      N1508   1.157       .  T
C1500      N1506   1.157       .  T
C1509      C1510   1.405       .  A
C1509      C1514   1.410       .  A
C1509      C1527   1.453       .  S
C1510      C1515   1.489       .  S
C1510      C1511   1.405       .  A
C1511      C1512   1.408       .  A
C1511      C1516   1.450       .  S
C1512      C1513   1.423       .  A
C1512      C1528   1.452       .  S
C1513      C1514   1.425       .  A
C1514      C1517   1.451       .  S
C1515      C1518   1.408       .  A
C1515      C1522   1.412       .  A
C1516      N1533   1.157       .  T
C1517      N1535   1.157       .  T
C1518      C1519   1.407       .  A
C1518      C1523   1.450       .  S
C1519      C1520   1.414       .  A
C1519      C1525   1.451       .  S
C1520      C1521   1.410       .  A
C1521      C1522   1.407       .  A
C1521      C1524   1.451       .  S
C1522      C1526   1.451       .  S
C1523      N1530   1.157       .  T
C1524      N1531   1.157       .  T
C1525      N1529   1.157       .  T
C1526      N1532   1.157       .  T
C1527      N1536   1.157       .  T
C1528      N1534   1.157       .  T
C1537      C1538   1.410       .  A
C1537      C1542   1.405       .  A
C1537      C1555   1.451       .  S
C1538      C1543   1.493       .  S
C1538      C1539   1.414       .  A
C1539      C1540   1.410       .  A
C1539      C1544   1.450       .  S
C1540      C1541   1.409       .  A
C1540      C1556   1.450       .  S
C1541      C1542   1.412       .  A
C1542      C1545   1.451       .  S
C1543      C1546   1.408       .  A
C1543      C1550   1.406       .  A
C1544      N1561   1.157       .  T
C1545      N1563   1.157       .  T
C1546      C1547   1.412       .  A
C1546      C1551   1.452       .  S
C1547      C1548   1.426       .  A
C1547      C1553   1.451       .  S
C1548      C1549   1.425       .  A
C1549      C1550   1.407       .  A
C1549      C1552   1.453       .  S
C1550      C1554   1.453       .  S
C1551      N1558   1.157       .  T
C1552      N1559   1.158       .  T
C1553      N1557   1.158       .  T
C1554      N1560   1.157       .  T
C1555      N1564   1.157       .  T
C1556      N1562   1.157       .  T
C1565      C1566   1.406       .  A
C1565      C1570   1.403       .  A
C1565      C1583   1.452       .  S
C1566      C1571   1.484       .  S
C1566      C1567   1.408       .  A
C1567      C1568   1.406       .  A
C1567      C1572   1.452       .  S
C1568      C1569   1.420       .  A
C1568      C1584   1.453       .  S
C1569      C1570   1.420       .  A
C1570      C1573   1.450       .  S
C1571      C1574   1.409       .  A
C1571      C1578   1.410       .  A
C1572      N1589   1.157       .  T
C1573      N1591   1.157       .  T
C1574      C1575   1.404       .  A
C1574      C1579   1.452       .  S
C1575      C1576   1.415       .  A
C1575      C1581   1.452       .  S
C1576      C1577   1.411       .  A
C1577      C1578   1.405       .  A
C1577      C1580   1.450       .  S
C1578      C1582   1.450       .  S
C1579      N1586   1.157       .  T
C1580      N1587   1.157       .  T
C1581      N1585   1.157       .  T
C1582      N1588   1.157       .  T
C1583      N1592   1.157       .  T
C1584      N1590   1.158       .  T
C1593      C1594   1.407       .  A
C1593      C1598   1.410       .  A
C1593      C1611   1.454       .  S
C1594      C1599   1.512       .  S
C1594      C1595   1.416       .  A
C1595      C1596   1.424       .  A
C1595      C1600   1.449       .  S
C1596      C1597   1.416       .  A
C1596      C1612   1.448       .  S
C1597      C1598   1.422       .  A
C1598      C1601   1.445       .  S
C1599      C1602   1.402       .  A
C1599      C1606   1.395       .  A
C1600      N1617   1.157       .  T
C1601      N1619   1.154       .  T
C1602      C1603   1.427       .  A
C1602      C1607   1.451       .  S
C1603      C1604   1.447       .  A
C1603      C1609   1.450       .  S
C1604      C1605   1.465       .  A
C1605      C1606   1.418       .  A
C1605      C1608   1.450       .  S
C1606      C1610   1.461       .  S
C1607      N1614   1.157       .  T
C1608      N1615   1.157       .  T
C1609      N3317   1.157       .  T
C1610      N1616   1.157       .  T
C1611      N1620   1.157       .  T
C1612      N1618   1.157       .  T
N1613      C3313   1.157       .  T
C1621      C1622   1.416       .  A
C1621      C1626   1.419       .  A
C1621      C1639   1.449       .  S
C1622      C1627   1.531       .  S
C1622      C1623   1.419       .  A
C1623      C1624   1.426       .  A
C1623      C1628   1.450       .  S
C1624      C1625   1.417       .  A
C1624      C1640   1.449       .  S
C1625      C1626   1.418       .  A
C1626      C1629   1.450       .  S
C1627      C1630   1.411       .  A
C1627      C1634   1.403       .  A
C1628      N1645   1.157       .  T
C1629      N1647   1.156       .  T
C1630      C1631   1.434       .  A
C1630      C1635   1.453       .  S
C1631      C1632   1.450       .  A
C1631      C1637   1.448       .  S
C1632      C1633   1.454       .  A
C1632      C2733   1.627       .  S
C1633      C1634   1.423       .  A
C1633      C1636   1.451       .  S
C1634      C1638   1.455       .  S
C1635      N1642   1.157       .  T
C1636      N1643   1.157       .  T
C1637      N3345   1.159       .  T
C1638      N1644   1.157       .  T
C1639      N1648   1.157       .  T
C1640      N1646   1.157       .  T
N1641      C3341   1.159   1_455  T
C1649      C1650   1.420       .  A
C1649      C1654   1.420       .  A
C1649      C1667   1.452       .  S
C1650      C1655   1.531       .  S
C1650      C1651   1.422       .  A
C1651      C1652   1.424       .  A
C1651      C1656   1.447       .  S
C1652      C1653   1.412       .  A
C1652      C1668   1.449       .  S
C1653      C1654   1.416       .  A
C1654      C1657   1.450       .  S
C1655      C1658   1.417       .  A
C1655      C1662   1.406       .  A
C1656      N1673   1.157       .  T
C1657      N1675   1.157       .  T
C1658      C1659   1.438       .  A
C1658      C1663   1.447       .  S
C1659      C1660   1.440       .  A
C1659      C1665   1.446       .  S
C1660      C1661   1.440       .  A
C1661      C1662   1.411       .  A
C1661      C1664   1.447       .  S
C1662      C1666   1.452       .  S
C1663      N1670   1.157       .  T
C1664      N1671   1.157       .  T
C1665      N1669   1.157   1_565  T
C1666      N1672   1.157       .  T
C1667      N1676   1.158       .  T
C1668      N1674   1.157       .  T
C1677      C1678   1.412       .  A
C1677      C1682   1.419       .  A
C1677      C1695   1.452       .  S
C1678      C1683   1.535       .  S
C1678      C1679   1.421       .  A
C1679      C1680   1.431       .  A
C1679      C1684   1.447       .  S
C1680      C1681   1.419       .  A
C1680      C1696   1.449       .  S
C1681      C1682   1.423       .  A
C1682      C1685   1.444       .  S
C1683      C1686   1.408       .  A
C1683      C1690   1.407       .  A
C1684      N1701   1.157       .  T
C1685      N1703   1.154       .  T
C1686      C1687   1.433       .  A
C1686      C1691   1.450       .  S
C1687      C1688   1.443       .  A
C1687      C1693   1.444       .  S
C1688      C1689   1.449       .  A
C1689      C1690   1.428       .  A
C1689      C1692   1.445       .  S
C1690      C1694   1.455       .  S
C1691      N1698   1.157       .  T
C1692      N1699   1.157       .  T
C1693      N1697   1.157       .  T
C1694      N1700   1.158       .  T
C1695      N1704   1.157       .  T
C1696      N1702   1.157       .  T
O1705      C1716   1.307       .  A
O1705     Eu1741   2.548       .  S
O1706      C1717   1.304       .  A
O1706     Eu1740   2.536       .  S
O1707      C1718   1.286       .  A
O1707     Eu1713   2.430       .  S
O1708      C1719   1.284       .  A
O1708     Eu1713   2.431       .  S
O1709      C1719   1.292       .  A
O1709     Eu1743   2.465       .  S
O1710      C1718   1.283       .  A
O1710     Eu1742   2.423       .  S
O1711      C1717   1.285       .  A
O1711     Eu1713   2.425       .  S
O1712      C1716   1.290       .  A
O1712     Eu1713   2.452       .  S
Eu1713     O1723   2.346       .  S
Eu1713     O1715   2.343       .  S
Eu1713     O1714   2.350       .  S
Eu1713     O1721   2.359       .  S
O1714     Eu1743   2.342       .  S
O1714     Eu1740   2.380       .  S
O1715     Eu1741   2.371       .  S
O1715     Eu1742   2.353       .  S
C1716      C2533   1.522       .  S
C1717      C2281   1.496       .  S
C1718      C2344   1.484       .  S
C1719      C2365   1.498       .  S
H1720      O1721   0.952       .  S
O1721     Eu1742   2.353       .  S
O1721     Eu1740   2.375       .  S
H1722      O1723   0.969       .  S
O1723     Eu1741   2.378       .  S
O1723     Eu1743   2.355       .  S
O1724      C1747   1.305       .  A
O1724     Eu1740   2.536       .  S
O1725      C1748   1.306       .  A
O1725     Eu1741   2.543       .  S
O1726      C1749   1.285       .  A
O1726     Eu1742   2.426       .  S
O1727      C1750   1.288       .  A
O1727     Eu1743   2.439       .  S
O1728      C1751   1.287       .  A
O1728     Eu1743   2.430       .  S
O1729      C1752   1.284       .  A
O1729     Eu1742   2.421       .  S
O1730      C1753   1.284       .  A
O1730     Eu1744   2.430       .  S
O1731      C1754   1.285       .  A
O1731     Eu1744   2.431       .  S
O1732      C1753   1.287       .  A
O1732     Eu1742   2.441       .  S
O1733      C1754   1.290       .  A
O1733     Eu1743   2.465       .  S
O1734      C1749   1.308       .  A
O1734     Eu1740   2.555       .  S
O1735      C1752   1.310       .  A
O1735     Eu1741   2.566       .  S
O1736      C1751   1.307       .  A
O1736     Eu1741   2.544       .  S
O1737      C1750   1.305       .  A
O1737     Eu1740   2.536       .  S
O1738      C1747   1.287       .  A
O1738     Eu1744   2.434       .  S
O1739      C1748   1.287       .  A
O1739     Eu1744   2.439       .  S
Eu1740     O1758   2.384       .  S
Eu1740     O1746   2.378       .  S
Eu1741     O1745   2.377       .  S
Eu1741     O1756   2.378       .  S
Eu1742     O1756   2.349       .  S
Eu1742     O1746   2.341       .  S
Eu1743     O1745   2.343       .  S
Eu1743     O1758   2.353       .  S
Eu1744     O1745   2.337       .  S
Eu1744     O1756   2.354       .  S
Eu1744     O1758   2.353       .  S
Eu1744     O1746   2.351       .  S
C1747      C2309   1.504       .  S
C1748      C2505   1.506       .  S
C1749      C2232   1.506       .  S
C1750      C2260   1.507       .  S
C1751      C2449   1.511       .  S
C1752      C2477   1.509       .  S
C1753      C2421   1.487       .  S
C1754      C2400   1.506       .  S
H1755      O1756   0.967       .  S
H1757      O1758   0.959       .  S
N1759      H1791   1.038       .  S
N1759      C1763   1.353       .  A
N1760      C2619   1.349   1_545  A
N1760      C1768   1.350       .  A
N1761      H1792   1.036       .  S
N1761      C1765   1.353       .  A
N1762      C2621   1.348   1_545  A
N1762      C1770   1.348       .  A
C1763      C1771   1.387       .  A
C1763      C1779   1.414       .  A
C1764      C1780   1.413       .  A
C1764      C1772   1.387       .  A
C1765      C1773   1.386       .  A
C1765      C1782   1.414       .  A
C1766      C1781   1.417       .  A
C1766      C1774   1.389       .  A
C1767      N2612   1.350       .  A
C1767      C1779   1.410       .  A
C1767      C1775   1.386       .  A
C1768      C1782   1.411       .  A
C1768      C1776   1.386       .  A
C1769      N2614   1.348       .  A
C1769      C1777   1.386       .  A
C1769      C1780   1.408       .  A
C1770      C1778   1.388       .  A
C1770      C1781   1.409       .  A
C1771      H1783   1.082       .  S
C1772      H1784   1.082       .  S
C1773      H1785   1.082       .  S
C1774      H1786   1.082       .  S
C1775      C2628   1.371       .  A
C1775      H1787   1.082       .  S
C1776      C2627   1.372   1_545  A
C1776      H1788   1.083       .  S
C1777      C2630   1.367       .  A
C1777      H1789   1.083       .  S
C1778      C2629   1.367   1_545  A
C1778      H1790   1.082       .  S
C1779      C2393   1.491       .  S
C1780      C2428   1.489       .  S
C1781      C2337   1.485       .  S
C1782      C2372   1.491       .  S
O1793      C1804   1.309       .  A
O1793     Eu2681   2.562       .  S
O1794      C1805   1.305       .  A
O1794     Eu1828   2.541       .  S
O1795      C1806   1.285       .  A
O1795     Eu1801   2.432       .  S
O1796      C1807   1.289       .  A
O1797      C1807   1.280       .  A
O1797     Eu2683   2.407   1_556  S
O1798      C1806   1.290       .  A
O1798     Eu2682   2.453       .  S
O1799      C1805   1.290       .  A
O1799     Eu1801   2.450   1_554  S
O1800      C1804   1.285       .  A
O1800     Eu1801   2.428       .  S
Eu1801     O1803   2.357       .  S
Eu1801     O1809   2.352   1_556  S
O1802     Eu2683   2.358       .  S
O1803     Eu2681   2.373       .  S
O1803     Eu2682   2.347       .  S
C1804      C2204   1.506       .  S
C1805      C1952   1.517       .  S
C1806      C2008   1.490       .  S
C1807      C2036   1.488   1_556  S
H1808      O1809   0.967       .  S
O1809     Eu2682   2.356   1_554  S
O1809     Eu1828   2.379       .  S
H1810      O1811   0.962       .  S
O1811     Eu2683   2.357   1_556  S
O1812      C1835   1.304       .  A
O1812     Eu2680   2.533   1_545  S
O1813      C1836   1.303       .  A
O1813     Eu1829   2.524   1_545  S
O1814      C1837   1.283       .  A
O1814     Eu2682   2.422   1_554  S
O1815      C1838   1.284       .  A
O1815     Eu2683   2.425       .  S
O1816      C1839   1.287       .  A
O1816     Eu1831   2.437   1_546  S
O1817      C1840   1.289       .  A
O1817     Eu1830   2.447       .  S
O1818      C1841   1.281       .  A
O1818     Eu1832   2.416       .  S
O1819      C1842   1.286       .  A
O1820      C1841   1.287   1_556  A
O1820     Eu1830   2.446   1_545  S
O1821      C1842   1.286       .  A
O1821     Eu1831   2.441   1_545  S
O1822      C1837   1.308       .  A
O1822     Eu1828   2.558       .  S
O1823      C1840   1.306       .  A
O1823     Eu1829   2.545       .  S
O1824      C1839   1.306       .  A
O1825      C1838   1.311       .  A
O1826      C1835   1.290       .  A
O1826     Eu1832   2.448       .  S
O1827      C1836   1.290       .  A
O1827     Eu1832   2.446   1_556  S
Eu1828     O2664   2.532       .  S
Eu1828     O2686   2.375       .  S
Eu1829     O2645   2.561       .  S
Eu1829     O2655   2.374       .  S
Eu1829     O1844   2.379   1_565  S
Eu1830     O2650   2.449       .  S
Eu1830     O2666   2.424   1_556  S
Eu1830     O2655   2.346       .  S
Eu1830     O2661   2.355   1_556  S
Eu1830     O1844   2.341   1_565  S
Eu1830     O1834   2.344   1_566  S
Eu1831     O2649   2.407   1_554  S
Eu1831     O2667   2.423       .  S
Eu1831     O2654   2.360       .  S
Eu1831     O2663   2.356   1_554  S
Eu1831     O1833   2.337   1_564  S
Eu1831     O1846   2.344   1_565  S
Eu1832     O1844   2.351   1_554  S
Eu1832     O1834   2.341       .  S
O1834     Eu2680   2.377   1_545  S
C1835      C1980   1.506       .  S
C1836      C2176   1.507       .  S
C1837      C1896   1.535       .  S
C1838      C1917   1.509       .  S
C1839      C2113   1.506       .  S
C1840      C2141   1.509   1_565  S
C1841      C2085   1.504       .  S
C1842      C2064   1.492       .  S
H1843      O1844   0.969       .  S
H1845      O1846   0.968       .  S
N1847      H1879   1.037       .  S
N1847      C1852   1.352       .  A
N1847      C1851   1.350       .  A
N1848      C1855   1.348       .  A
N1848      C1856   1.348       .  A
N1849      H1880   1.036       .  S
N1849      C1854   1.352       .  A
N1849      C1853   1.353       .  A
N1850      C1857   1.349       .  A
N1850      C1858   1.348       .  A
C1851      C1859   1.389       .  A
C1851      C1867   1.412       .  A
C1852      C1868   1.410       .  A
C1852      C1860   1.386       .  A
C1853      C1861   1.388       .  A
C1853      C1870   1.414       .  A
C1854      C1869   1.413       .  A
C1854      C1862   1.387       .  A
C1855      C1867   1.409       .  A
C1855      C1863   1.387       .  A
C1856      C1870   1.409       .  A
C1856      C1864   1.387       .  A
C1857      C1865   1.386       .  A
C1857      C1868   1.409       .  A
C1858      C1866   1.386       .  A
C1858      C1869   1.409       .  A
C1859      C1860   1.369       .  A
C1859      H1871   1.082       .  S
C1860      H1872   1.082       .  S
C1861      C1862   1.367       .  A
C1861      H1873   1.082       .  S
C1862      H1874   1.082       .  S
C1863      C1864   1.369       .  A
C1863      H1875   1.083       .  S
C1864      H1876   1.082       .  S
C1865      C1866   1.371       .  A
C1865      H1877   1.083       .  S
C1866      H1878   1.083       .  S
C1867      C2057   1.482       .  S
C1868      C2092   1.486       .  S
C1869      C2001   1.485       .  S
C1870      C2029   1.487       .  S
C1881      C1945   1.640       .  S
C1881      C1973   1.620       .  S
C1881      C2456   1.630       .  S
C1882      C2741   1.615   1_565  S
C1882      C2776   1.621       .  S
C1882      C3364   1.628       .  S
C1882      C2540   1.628   1_565  S
C1883      C2169   1.638       .  S
C1883      C2197   1.616       .  S
C1883      C2253   1.636       .  S
C1884      C2972   1.619       .  S
C1884      C3000   1.637       .  S
C1884      C3140   1.620       .  S
C1884      C2316   1.640       .  S
C1885      C1886   1.412       .  A
C1885      C1890   1.422       .  A
C1885      C1903   1.454       .  S
C1886      C1891   1.524       .  S
C1886      C2739   1.407       .  A
C1887      C2738   1.408   1_545  A
C1887      C1888   1.423       .  A
C1887      C1892   1.453       .  S
C1888      C2741   1.442       .  A
C1888      C1904   1.449       .  S
C1889      C2740   1.443       .  A
C1889      C1890   1.439       .  A
C1889      C2734   1.615       .  S
C1890      C1893   1.448       .  S
C1891      C2746   1.419       .  A
C1891      C1898   1.407       .  A
C1892      N1909   1.157       .  T
C1893      N1911   1.157       .  T
C1894      C2743   1.420       .  A
C1894      C1895   1.430       .  A
C1894      C1899   1.449       .  S
C1895      C2748   1.424       .  A
C1895      C1901   1.448   1_565  S
C1896      C2747   1.424       .  A
C1896      C1897   1.435       .  A
C1897      C1898   1.410       .  A
C1897      C1900   1.452       .  S
C1898      C1902   1.455       .  S
C1899      N1906   1.157       .  T
C1900      N1907   1.157       .  T
C1901      N1905   1.157       .  T
C1902      N1908   1.157       .  T
C1903      N1912   1.157       .  T
C1904      N1910   1.157       .  T
C1913      C2766   1.420   1_545  A
C1913      C1918   1.420       .  A
C1913      C1931   1.449       .  S
C1914      C1919   1.536       .  S
C1914      C2765   1.420       .  A
C1914      C1915   1.422       .  A
C1915      C1916   1.424       .  A
C1915      C1920   1.451       .  S
C1916      C1917   1.416       .  A
C1916      C1932   1.449       .  S
C1917      C2770   1.417       .  A
C1918      C2769   1.416   1_545  A
C1918      C1921   1.449       .  S
C1919      C1922   1.418       .  A
C1919      C2778   1.411       .  A
C1920      N1937   1.157       .  T
C1921      N1939   1.157       .  T
C1922      C1923   1.431       .  A
C1922      C1927   1.453       .  S
C1923      C1924   1.443       .  A
C1923      C1929   1.446       .  S
C1924      C2777   1.435       .  A
C1924      C2734   1.620       .  S
C1925      C2776   1.436       .  A
C1925      C1926   1.416       .  A
C1925      C1928   1.440       .  S
C1926      C2771   1.410       .  A
C1926      C1930   1.451       .  S
C1927      N1934   1.157       .  T
C1928      N1935   1.155       .  T
C1929      N1933   1.157       .  T
C1930      N1936   1.157       .  T
C1931      N1940   1.157       .  T
C1932      N1938   1.157       .  T
C1941      C1942   1.402       .  A
C1941      C1946   1.431       .  A
C1941      C1959   1.453       .  S
C1942      C1947   1.522       .  S
C1943      C1944   1.422       .  A
C1943      C1948   1.461       .  S
C1944      C1960   1.445       .  S
C1945      C1946   1.454       .  A
C1946      C1949   1.449       .  S
C1947      C1954   1.416       .  A
C1948      N1965   1.157       .  T
C1949      N1967   1.157       .  T
C1950      C1951   1.415       .  A
C1950      C1955   1.453       .  S
C1951      C1957   1.448       .  S
C1952      C1953   1.420       .  A
C1953      C1954   1.426       .  A
C1953      C1956   1.448       .  S
C1954      C1958   1.449       .  S
C1955      N1962   1.157       .  T
C1956      N1963   1.157       .  T
C1957      N1961   1.156       .  T
C1958      N1964   1.157       .  T
C1959      N1968   1.157       .  T
C1960      N1966   1.156       .  T
C1969      C1974   1.421       .  A
C1969      C1987   1.457       .  S
C1970      C1975   1.529       .  S
C1970      C1971   1.413       .  A
C1971      C1972   1.433       .  A
C1971      C1976   1.453       .  S
C1972      C1973   1.445       .  A
C1972      C1988   1.447       .  S
C1974      C1977   1.451       .  S
C1975      C1982   1.418       .  A
C1976      N1993   1.157       .  T
C1977      N1995   1.157       .  T
C1978      C1979   1.423       .  A
C1978      C1983   1.450       .  S
C1979      C1985   1.446       .  S
C1980      C1981   1.413       .  A
C1981      C1982   1.417       .  A
C1981      C1984   1.449       .  S
C1982      C1986   1.450       .  S
C1983      N1990   1.157       .  T
C1984      N1991   1.156       .  T
C1985      N1989   1.157       .  T
C1986      N1992   1.157       .  T
C1987      N1996   1.157       .  T
C1988      N1994   1.158       .  T
C1997      C1998   1.411       .  A
C1997      C2002   1.406       .  A
C1997      C2015   1.452       .  S
C1998      C2003   1.481       .  S
C1998      C1999   1.406   1_554  A
C1999      C2000   1.403   1_556  A
C1999      C2004   1.451       .  S
C2000      C2001   1.414       .  A
C2000      C2016   1.451   1_554  S
C2001      C2002   1.410       .  A
C2002      C2005   1.450       .  S
C2003      C2006   1.406   1_554  A
C2003      C2010   1.403       .  A
C2004      N2021   1.157       .  T
C2005      N2023   1.157       .  T
C2006      C2007   1.407       .  A
C2006      C2011   1.451       .  S
C2007      C2008   1.420       .  A
C2007      C2013   1.452       .  S
C2008      C2009   1.424   1_556  A
C2009      C2010   1.403       .  A
C2009      C2012   1.451       .  S
C2010      C2014   1.453       .  S
C2011      N2018   1.157       .  T
C2012      N2019   1.157       .  T
C2013      N2017   1.158       .  T
C2014      N2020   1.157       .  T
C2015      N2024   1.157       .  T
C2016      N2022   1.157       .  T
C2025      C2026   1.408       .  A
C2025      C2030   1.402       .  A
C2025      C2043   1.452   1_554  S
C2026      C2031   1.485       .  S
C2026      C2027   1.414       .  A
C2027      C2028   1.407       .  A
C2027      C2032   1.451       .  S
C2028      C2029   1.409       .  A
C2028      C2044   1.450       .  S
C2029      C2030   1.415       .  A
C2030      C2033   1.452   1_554  S
C2031      C2034   1.407       .  A
C2031      C2038   1.409       .  A
C2032      N2049   1.157       .  T
C2033      N2051   1.157       .  T
C2034      C2035   1.405       .  A
C2034      C2039   1.453       .  S
C2035      C2036   1.425       .  A
C2035      C2041   1.453       .  S
C2036      C2037   1.417   1_554  A
C2037      C2038   1.404   1_556  A
C2037      C2040   1.452       .  S
C2038      C2042   1.451   1_554  S
C2039      N2046   1.157       .  T
C2040      N2047   1.157       .  T
C2041      N2045   1.158       .  T
C2042      N2048   1.157       .  T
C2043      N2052   1.157       .  T
C2044      N2050   1.157       .  T
C2053      C2054   1.409       .  A
C2053      C2058   1.403       .  A
C2053      C2071   1.451   1_554  S
C2054      C2059   1.481       .  S
C2054      C2055   1.408       .  A
C2055      C2056   1.404       .  A
C2055      C2060   1.447       .  S
C2056      C2057   1.410       .  A
C2056      C2072   1.451       .  S
C2057      C2058   1.412       .  A
C2058      C2061   1.452       .  S
C2059      C2062   1.404       .  A
C2059      C2066   1.405       .  A
C2060      N2077   1.156       .  T
C2061      N2079   1.157   1_554  T
C2062      C2063   1.406       .  A
C2062      C2067   1.453       .  S
C2063      C2064   1.424       .  A
C2063      C2069   1.450       .  S
C2064      C2065   1.421       .  A
C2065      C2066   1.406       .  A
C2065      C2068   1.452   1_554  S
C2066      C2070   1.452       .  S
C2067      N2074   1.157       .  T
C2068      N2075   1.158       .  T
C2069      N2073   1.157       .  T
C2070      N2076   1.157       .  T
C2071      N2080   1.157       .  T
C2072      N2078   1.157       .  T
C2081      C2082   1.406       .  A
C2081      C2086   1.409       .  A
C2081      C2099   1.452       .  S
C2082      C2087   1.486       .  S
C2082      C2083   1.405       .  A
C2083      C2084   1.405       .  A
C2083      C2088   1.454       .  S
C2084      C2085   1.430       .  A
C2084      C2100   1.455       .  S
C2085      C2086   1.426       .  A
C2086      C2089   1.452   1_554  S
C2087      C2090   1.410       .  A
C2087      C2094   1.412       .  A
C2088      N2105   1.157       .  T
C2089      N2107   1.157       .  T
C2090      C2091   1.404       .  A
C2090      C2095   1.451   1_554  S
C2091      C2092   1.411       .  A
C2091      C2097   1.450   1_554  S
C2092      C2093   1.410       .  A
C2093      C2094   1.407       .  A
C2093      C2096   1.451       .  S
C2094      C2098   1.451       .  S
C2095      N2102   1.157       .  T
C2096      N2103   1.157       .  T
C2097      N2101   1.157       .  T
C2098      N2104   1.157       .  T
C2099      N2108   1.157       .  T
C2100      N2106   1.158   1_554  T
C2109      C2110   1.421       .  A
C2109      C2114   1.426       .  A
C2109      C2127   1.450       .  S
C2110      C2115   1.528       .  S
C2110      C2963   1.415   1_545  A
C2111      C2962   1.415       .  A
C2111      C2112   1.416       .  A
C2111      C2116   1.450       .  S
C2112      C2965   1.417       .  A
C2112      C2128   1.450       .  S
C2113      C2964   1.417   1_545  A
C2113      C2114   1.416       .  A
C2114      C2117   1.449       .  S
C2115      C2118   1.403       .  A
C2115      C2122   1.412       .  A
C2116      N2133   1.157       .  T
C2117      N2135   1.157       .  T
C2118      C2119   1.420       .  A
C2118      C2123   1.456       .  S
C2119      C2120   1.455       .  A
C2119      C2125   1.453       .  S
C2120      C2121   1.446       .  A
C2120      C2736   1.620       .  S
C2121      C2122   1.431       .  A
C2121      C2976   1.447       .  S
C2122      C2126   1.453       .  S
C2123      N2130   1.157       .  T
C2124      C2973   1.447       .  S
C2124      N2131   1.158       .  T
C2125      N2129   1.157       .  T
C2126      N2984   1.157       .  T
C2127      N2136   1.157       .  T
C2128      N2134   1.157       .  T
N2132      C2978   1.157       .  T
C2137      C2990   1.419       .  A
C2137      C2142   1.427       .  A
C2137      C2155   1.449       .  S
C2138      C2143   1.525       .  S
C2138      C2989   1.419   1_545  A
C2138      C2139   1.415       .  A
C2139      C2140   1.415       .  A
C2139      C2144   1.452       .  S
C2140      C2141   1.417       .  A
C2140      C2156   1.448       .  S
C2141      C2994   1.414   1_545  A
C2142      C2993   1.415       .  A
C2142      C2145   1.447       .  S
C2143      C2146   1.398       .  A
C2143      C3002   1.405   1_545  A
C2144      N2161   1.158       .  T
C2145      N2163   1.157       .  T
C2146      C2147   1.424       .  A
C2146      C2151   1.461       .  S
C2147      C2148   1.466       .  A
C2147      C2153   1.449       .  S
C2148      C3001   1.447   1_545  A
C2148      C2736   1.636       .  S
C2149      C3000   1.448       .  A
C2149      C2150   1.431       .  A
C2149      C2152   1.449       .  S
C2150      C2995   1.405       .  A
C2150      C2154   1.452       .  S
C2151      N2158   1.158       .  T
C2152      N2159   1.157       .  T
C2153      N2157   1.156       .  T
C2154      N2160   1.157       .  T
C2155      N2164   1.157       .  T
C2156      N2162   1.156       .  T
C2165      C2170   1.422       .  A
C2165      C2183   1.458       .  S
C2166      C2171   1.517       .  S
C2166      C2167   1.401       .  A
C2167      C2168   1.429       .  A
C2167      C2172   1.455       .  S
C2168      C2169   1.452       .  A
C2168      C2184   1.446       .  S
C2170      C2173   1.448       .  S
C2171      C2174   1.417       .  A
C2172      N2189   1.157       .  T
C2173      N2191   1.156       .  T
C2174      C2175   1.422       .  A
C2174      C2179   1.450       .  S
C2175      C2176   1.417       .  A
C2175      C2181   1.450       .  S
C2177      C2178   1.414       .  A
C2177      C2180   1.450       .  S
C2178      C2182   1.451       .  S
C2179      N2186   1.157       .  T
C2180      N2187   1.156       .  T
C2181      N2185   1.158       .  T
C2182      N2188   1.157       .  T
C2183      N2192   1.157       .  T
C2184      N2190   1.158       .  T
C2193      C2198   1.433       .  A
C2193      C2211   1.451       .  S
C2194      C2199   1.522       .  S
C2194      C2195   1.399       .  A
C2195      C2196   1.417       .  A
C2195      C2200   1.456       .  S
C2196      C2197   1.454       .  A
C2196      C2212   1.452       .  S
C2198      C2201   1.446       .  S
C2199      C2202   1.415       .  A
C2200      N2217   1.157       .  T
C2201      N2219   1.158       .  T
C2202      C2203   1.419       .  A
C2202      C2207   1.448       .  S
C2203      C2204   1.416       .  A
C2203      C2209   1.451       .  S
C2205      C2206   1.424       .  A
C2205      C2208   1.447       .  S
C2206      C2210   1.450       .  S
C2207      N2214   1.157       .  T
C2208      N2215   1.157       .  T
C2209      N2213   1.157       .  T
C2210      N2216   1.157       .  T
C2211      N2220   1.157       .  T
C2212      N2218   1.157       .  T
C2221      C2222   1.412       .  A
C2221      C2226   1.437       .  A
C2221      C2239   1.452       .  S
C2222      C2227   1.530       .  S
C2222      C2223   1.400       .  A
C2223      C2224   1.421       .  A
C2223      C2228   1.456       .  S
C2224      C2225   1.457       .  A
C2224      C2240   1.451       .  S
C2225      C2226   1.447       .  A
C2226      C2229   1.446       .  S
C2227      C2230   1.414       .  A
C2227      C2234   1.423       .  A
C2228      N2245   1.157       .  T
C2229      N2247   1.158   1_655  T
C2230      C2231   1.416       .  A
C2230      C2235   1.449       .  S
C2231      C2232   1.416       .  A
C2231      C2237   1.449       .  S
C2232      C2233   1.414       .  A
C2233      C2234   1.428       .  A
C2233      C2236   1.449       .  S
C2234      C2238   1.449       .  S
C2235      N2242   1.157       .  T
C2236      N2243   1.157       .  T
C2237      N2241   1.156       .  T
C2238      N2244   1.157       .  T
C2239      N2248   1.157       .  T
C2240      N2246   1.157       .  T
C2249      C2250   1.395       .  A
C2249      C2254   1.419       .  A
C2249      C2267   1.460       .  S
C2250      C2255   1.520       .  S
C2250      C2251   1.406       .  A
C2251      C2252   1.432       .  A
C2251      C2256   1.452       .  S
C2252      C2253   1.446       .  A
C2252      C2268   1.448       .  S
C2253      C2254   1.464       .  A
C2254      C2257   1.450       .  S
C2255      C2258   1.419       .  A
C2255      C2262   1.410       .  A
C2256      N2273   1.157       .  T
C2257      N2275   1.156       .  T
C2258      C2259   1.427       .  A
C2258      C2263   1.449       .  S
C2259      C2260   1.416       .  A
C2259      C2265   1.449       .  S
C2260      C2261   1.419       .  A
C2261      C2262   1.413       .  A
C2261      C2264   1.450       .  S
C2262      C2266   1.452       .  S
C2263      N2270   1.157       .  T
C2264      N2271   1.156       .  T
C2265      N2269   1.158       .  T
C2266      N2272   1.157       .  T
C2267      N2276   1.157       .  T
C2268      N2274   1.157       .  T
C2277      C2278   1.415       .  A
C2277      C2282   1.414       .  A
C2277      C2295   1.450       .  S
C2278      C2283   1.522       .  S
C2278      C2279   1.422       .  A
C2279      C2280   1.421       .  A
C2279      C2284   1.450       .  S
C2280      C2281   1.411       .  A
C2280      C2296   1.448       .  S
C2281      C2282   1.414       .  A
C2282      C2285   1.450       .  S
C2283      C2286   1.412       .  A
C2283      C2290   1.400       .  A
C2284      N2301   1.157       .  T
C2285      N2303   1.156       .  T
C2286      C2287   1.432       .  A
C2286      C2291   1.454       .  S
C2287      C2288   1.446       .  A
C2287      C2293   1.446       .  S
C2288      C2289   1.456       .  A
C2288      C2736   1.618       .  S
C2289      C2290   1.417       .  A
C2289      C2292   1.451       .  S
C2290      C2294   1.458       .  S
C2291      N2298   1.157       .  T
C2292      N2299   1.157       .  T
C2293      N3149   1.158   1_545  T
C2294      N2300   1.157       .  T
C2295      N2304   1.157       .  T
C2296      N2302   1.157       .  T
N2297      C3145   1.158       .  T
C2305      C2306   1.419       .  A
C2305      C2310   1.423       .  A
C2305      C2323   1.449       .  S
C2306      C2311   1.524       .  S
C2306      C2307   1.415       .  A
C2307      C2308   1.416       .  A
C2307      C2312   1.452       .  S
C2308      C2309   1.419       .  A
C2308      C2324   1.451       .  S
C2309      C2310   1.414       .  A
C2310      C2313   1.450       .  S
C2311      C2314   1.399       .  A
C2311      C2318   1.405       .  A
C2312      N2329   1.157       .  T
C2313      N2331   1.157       .  T
C2314      C2315   1.422       .  A
C2314      C2319   1.460       .  S
C2315      C2316   1.464       .  A
C2315      C2321   1.450       .  S
C2316      C2317   1.450       .  A
C2317      C2318   1.431       .  A
C2317      C2320   1.449       .  S
C2318      C2322   1.453       .  S
C2319      N2326   1.157       .  T
C2320      N2327   1.157       .  T
C2321      N2325   1.157       .  T
C2322      N2328   1.157       .  T
C2323      N2332   1.157       .  T
C2324      N2330   1.157       .  T
C2333      C2334   1.407       .  A
C2333      C2338   1.400       .  A
C2333      C2351   1.452       .  S
C2334      C2339   1.478       .  S
C2334      C2335   1.412       .  A
C2335      C2336   1.405       .  A
C2335      C2340   1.452       .  S
C2336      C2337   1.411       .  A
C2336      C2352   1.451       .  S
C2337      C2338   1.413       .  A
C2338      C2341   1.451       .  S
C2339      C2342   1.406       .  A
C2339      C2346   1.406       .  A
C2340      N2357   1.158       .  T
C2341      N2359   1.157       .  T
C2342      C2343   1.403       .  A
C2342      C2347   1.453       .  S
C2343      C2344   1.422       .  A
C2343      C2349   1.453       .  S
C2344      C2345   1.420       .  A
C2345      C2346   1.402       .  A
C2345      C2348   1.453       .  S
C2346      C2350   1.452       .  S
C2347      N2354   1.157       .  T
C2348      N2355   1.157       .  T
C2349      N2353   1.158       .  T
C2350      N2356   1.157       .  T
C2351      N2360   1.157       .  T
C2352      N2358   1.157       .  T
C2361      C2362   1.405       .  A
C2361      C2366   1.409       .  A
C2361      C2379   1.453       .  S
C2362      C2367   1.488       .  S
C2362      C2363   1.404       .  A
C2363      C2364   1.408       .  A
C2363      C2368   1.450       .  S
C2364      C2365   1.422       .  A
C2364      C2380   1.452       .  S
C2365      C2366   1.425       .  A
C2366      C2369   1.451       .  S
C2367      C2370   1.407       .  A
C2367      C2374   1.412       .  A
C2368      N2385   1.157       .  T
C2369      N2387   1.158       .  T
C2370      C2371   1.407       .  A
C2370      C2375   1.450       .  S
C2371      C2372   1.414       .  A
C2371      C2377   1.450       .  S
C2372      C2373   1.410       .  A
C2373      C2374   1.408       .  A
C2373      C2376   1.451       .  S
C2374      C2378   1.451       .  S
C2375      N2382   1.157       .  T
C2376      N2383   1.157       .  T
C2377      N2381   1.157       .  T
C2378      N2384   1.157       .  T
C2379      N2388   1.157       .  T
C2380      N2386   1.157       .  T
C2389      C2390   1.410       .  A
C2389      C2394   1.405       .  A
C2389      C2407   1.451       .  S
C2390      C2395   1.494       .  S
C2390      C2391   1.414       .  A
C2391      C2392   1.411       .  A
C2391      C2396   1.450       .  S
C2392      C2393   1.410       .  A
C2392      C2408   1.450       .  S
C2393      C2394   1.412       .  A
C2394      C2397   1.451       .  S
C2395      C2398   1.407       .  A
C2395      C2402   1.407       .  A
C2396      N2413   1.157       .  T
C2397      N2415   1.157       .  T
C2398      C2399   1.412       .  A
C2398      C2403   1.451       .  S
C2399      C2400   1.425       .  A
C2399      C2405   1.451       .  S
C2400      C2401   1.426       .  A
C2401      C2402   1.408       .  A
C2401      C2404   1.453       .  S
C2402      C2406   1.453       .  S
C2403      N2410   1.157       .  T
C2404      N2411   1.158       .  T
C2405      N2409   1.158       .  T
C2406      N2412   1.157       .  T
C2407      N2416   1.157       .  T
C2408      N2414   1.157       .  T
C2417      C2418   1.406       .  A
C2417      C2422   1.404       .  A
C2417      C2435   1.452       .  S
C2418      C2423   1.485       .  S
C2418      C2419   1.407       .  A
C2419      C2420   1.406       .  A
C2419      C2424   1.452       .  S
C2420      C2421   1.419       .  A
C2420      C2436   1.453       .  S
C2421      C2422   1.421       .  A
C2422      C2425   1.451       .  S
C2423      C2426   1.409       .  A
C2423      C2430   1.410       .  A
C2424      N2441   1.157       .  T
C2425      N2443   1.157       .  T
C2426      C2427   1.404       .  A
C2426      C2431   1.452       .  S
C2427      C2428   1.415       .  A
C2427      C2433   1.452       .  S
C2428      C2429   1.411       .  A
C2429      C2430   1.406       .  A
C2429      C2432   1.450       .  S
C2430      C2434   1.450       .  S
C2431      N2438   1.157       .  T
C2432      N2439   1.157       .  T
C2433      N2437   1.157       .  T
C2434      N2440   1.157       .  T
C2435      N2444   1.157       .  T
C2436      N2442   1.157       .  T
C2445      C2446   1.407       .  A
C2445      C2450   1.411       .  A
C2445      C2463   1.454       .  S
C2446      C2451   1.515       .  S
C2446      C2447   1.417       .  A
C2447      C2448   1.425       .  A
C2447      C2452   1.449       .  S
C2448      C2449   1.417       .  A
C2448      C2464   1.448       .  S
C2449      C2450   1.422       .  A
C2450      C2453   1.446       .  S
C2451      C2454   1.402       .  A
C2451      C2458   1.395       .  A
C2452      N2469   1.157       .  T
C2453      N2471   1.155       .  T
C2454      C2455   1.427       .  A
C2454      C2459   1.451       .  S
C2455      C2456   1.448       .  A
C2455      C2461   1.450       .  S
C2456      C2457   1.464       .  A
C2457      C2458   1.419       .  A
C2457      C2460   1.449       .  S
C2458      C2462   1.461       .  S
C2459      N2466   1.157       .  T
C2460      N2467   1.157       .  T
C2462      N2468   1.157       .  T
C2463      N2472   1.157       .  T
C2464      N2470   1.157       .  T
C2473      C2474   1.416       .  A
C2473      C2478   1.419       .  A
C2473      C2491   1.449       .  S
C2474      C2479   1.530       .  S
C2474      C2475   1.419       .  A
C2475      C2476   1.425       .  A
C2475      C2480   1.450       .  S
C2476      C2477   1.416       .  A
C2476      C2492   1.448       .  S
C2477      C2478   1.418       .  A
C2478      C2481   1.450       .  S
C2479      C2482   1.411       .  A
C2479      C2486   1.403       .  A
C2480      N2497   1.157       .  T
C2481      N2499   1.156       .  T
C2482      C2483   1.434       .  A
C2482      C2487   1.453       .  S
C2483      C2484   1.449       .  A
C2483      C2489   1.447       .  S
C2484      C2485   1.454       .  A
C2485      C2486   1.423       .  A
C2485      C2488   1.451       .  S
C2486      C2490   1.456       .  S
C2487      N2494   1.157       .  T
C2488      N2495   1.157       .  T
C2490      N2496   1.157       .  T
C2491      N2500   1.157       .  T
C2492      N2498   1.157       .  T
C2501      C2502   1.420       .  A
C2501      C2506   1.420       .  A
C2501      C2519   1.452       .  S
C2502      C2507   1.531       .  S
C2502      C2503   1.422       .  A
C2503      C2504   1.424       .  A
C2503      C2508   1.448       .  S
C2504      C2505   1.412       .  A
C2504      C2520   1.449       .  S
C2505      C2506   1.415       .  A
C2506      C2509   1.450       .  S
C2507      C2510   1.417       .  A
C2507      C2514   1.407       .  A
C2508      N2525   1.157       .  T
C2509      N2527   1.157       .  T
C2510      C2511   1.437       .  A
C2510      C2515   1.447       .  S
C2511      C2512   1.439       .  A
C2511      C2517   1.446       .  S
C2512      C2513   1.439       .  A
C2512      C2734   1.626       .  S
C2513      C2514   1.411       .  A
C2513      C2516   1.447       .  S
C2514      C2518   1.452       .  S
C2515      N2522   1.157       .  T
C2516      N2523   1.157       .  T
C2517      N2521   1.157       .  T
C2518      N2524   1.157       .  T
C2519      N2528   1.157       .  T
C2520      N2526   1.157       .  T
C2529      C2530   1.413       .  A
C2529      C2534   1.418       .  A
C2529      C2547   1.452       .  S
C2530      C2535   1.532       .  S
C2530      C2531   1.421       .  A
C2531      C2532   1.429       .  A
C2531      C2536   1.448       .  S
C2532      C2533   1.418       .  A
C2532      C2548   1.449       .  S
C2533      C2534   1.422       .  A
C2534      C2537   1.446       .  S
C2535      C2538   1.408       .  A
C2535      C2542   1.407       .  A
C2536      N2553   1.157       .  T
C2537      N2555   1.155       .  T
C2538      C2539   1.432       .  A
C2538      C2543   1.451       .  S
C2539      C2540   1.444       .  A
C2539      C2545   1.444       .  S
C2540      C2541   1.449       .  A
C2541      C2542   1.427       .  A
C2541      C2544   1.445       .  S
C2542      C2546   1.456       .  S
C2543      N2550   1.157       .  T
C2544      N2551   1.157       .  T
C2545      N2549   1.157       .  T
C2546      N2552   1.158       .  T
C2547      N2556   1.157       .  T
C2548      N2554   1.157       .  T
O2557      C2568   1.308       .  A
O2557     Eu2593   2.553       .  S
O2558      C2569   1.304       .  A
O2558     Eu2592   2.534       .  S
O2559      C2570   1.286       .  A
O2559     Eu2565   2.433       .  S
O2560      C2571   1.285       .  A
O2560     Eu2565   2.436       .  S
O2561      C2571   1.291       .  A
O2561     Eu2595   2.463       .  S
O2562      C2570   1.282       .  A
O2562     Eu2594   2.419       .  S
O2563      C2569   1.285       .  A
O2563     Eu2565   2.422       .  S
O2564      C2568   1.291       .  A
O2564     Eu2565   2.455       .  S
Eu2565     O2575   2.344       .  S
Eu2565     O2567   2.342       .  S
Eu2565     O2566   2.351       .  S
Eu2565     O2573   2.362       .  S
O2566     Eu2595   2.338       .  S
O2566     Eu2592   2.381       .  S
O2567     Eu2593   2.370       .  S
O2567     Eu2594   2.352       .  S
C2568      C3385   1.527       .  S
C2569      C3133   1.495       .  S
C2570      C3196   1.484       .  S
C2571      C3217   1.499       .  S
H2572      O2573   0.952       .  S
O2573     Eu2594   2.352       .  S
O2573     Eu2592   2.379       .  S
H2574      O2575   0.970       .  S
O2575     Eu2593   2.379       .  S
O2575     Eu2595   2.356       .  S
O2576      C2599   1.306       .  A
O2576     Eu2592   2.543       .  S
O2577      C2600   1.307       .  A
O2577     Eu2593   2.546       .  S
O2578      C2601   1.285       .  A
O2578     Eu2594   2.428       .  S
O2579      C2602   1.288       .  A
O2579     Eu2595   2.439       .  S
O2580      C2603   1.287       .  A
O2580     Eu2595   2.426       .  S
O2581      C2604   1.284       .  A
O2581     Eu2594   2.423       .  S
O2582      C2605   1.286       .  A
O2582     Eu2596   2.438       .  S
O2583      C2606   1.286       .  A
O2583     Eu2596   2.435       .  S
O2584      C2605   1.285       .  A
O2584     Eu2594   2.432       .  S
O2585      C2606   1.289       .  A
O2585     Eu2595   2.457       .  S
O2586      C2601   1.307       .  A
O2586     Eu2592   2.551       .  S
O2587      C2604   1.310       .  A
O2587     Eu2593   2.566       .  S
O2588      C2603   1.306       .  A
O2588     Eu2593   2.543       .  S
O2589      C2602   1.304       .  A
O2589     Eu2592   2.535       .  S
O2590      C2599   1.287       .  A
O2590     Eu2596   2.434       .  S
O2591      C2600   1.287       .  A
O2591     Eu2596   2.436       .  S
Eu2592     O2610   2.381       .  S
Eu2592     O2598   2.376       .  S
Eu2593     O2597   2.377       .  S
Eu2593     O2608   2.379       .  S
Eu2594     O2608   2.350       .  S
Eu2594     O2598   2.341       .  S
Eu2595     O2597   2.344       .  S
Eu2595     O2610   2.354       .  S
Eu2596     O2597   2.338       .  S
Eu2596     O2608   2.354       .  S
Eu2596     O2610   2.354       .  S
Eu2596     O2598   2.349       .  S
C2599      C3161   1.507       .  S
C2600      C3357   1.507       .  S
C2601      C3084   1.506       .  S
C2602      C3112   1.506       .  S
C2603      C3301   1.509       .  S
C2604      C3329   1.510       .  S
C2605      C3273   1.485       .  S
C2606      C3252   1.505       .  S
H2607      O2608   0.967       .  S
H2609      O2610   0.959       .  S
N2611      H2643   1.038       .  S
N2611      C2615   1.353       .  A
N2612      C2620   1.350       .  A
N2613      H2644   1.037       .  S
N2613      C2617   1.353       .  A
N2614      C2622   1.349       .  A
C2615      C2623   1.387       .  A
C2615      C2631   1.414       .  A
C2616      C2632   1.414       .  A
C2616      C2624   1.387       .  A
C2617      C2625   1.386       .  A
C2617      C2634   1.413       .  A
C2618      C2633   1.417       .  A
C2618      C2626   1.389       .  A
C2619      C2631   1.409       .  A
C2619      C2627   1.386       .  A
C2620      C2634   1.412       .  A
C2620      C2628   1.386       .  A
C2621      C2629   1.386       .  A
C2621      C2632   1.409       .  A
C2622      C2630   1.387       .  A
C2622      C2633   1.408       .  A
C2623      H2635   1.082       .  S
C2624      H2636   1.082       .  S
C2625      H2637   1.082       .  S
C2626      H2638   1.082       .  S
C2627      H2639   1.082       .  S
C2628      H2640   1.083       .  S
C2629      H2641   1.083       .  S
C2630      H2642   1.082       .  S
C2631      C3245   1.489       .  S
C2632      C3280   1.489       .  S
C2633      C3189   1.486       .  S
C2634      C3224   1.492       .  S
O2645      C2656   1.309       .  A
O2646      C2657   1.306       .  A
O2646     Eu2680   2.546       .  S
O2647      C2658   1.284       .  A
O2647     Eu2653   2.429       .  S
O2648      C2659   1.288       .  A
O2649      C2659   1.280       .  A
O2650      C2658   1.289       .  A
O2651      C2657   1.290       .  A
O2651     Eu2653   2.452   1_554  S
O2652      C2656   1.285       .  A
O2652     Eu2653   2.426       .  S
Eu2653     O2655   2.356       .  S
Eu2653     O2661   2.350   1_556  S
C2656      C3056   1.505       .  S
C2657      C2804   1.520       .  S
C2658      C2860   1.489       .  S
C2659      C2888   1.486   1_556  S
H2660      O2661   0.967       .  S
O2661     Eu2680   2.377       .  S
H2662      O2663   0.962       .  S
O2664      C2687   1.304       .  A
O2665      C2688   1.304       .  A
O2665     Eu2681   2.527       .  S
O2666      C2689   1.284       .  A
O2667      C2690   1.284       .  A
O2668      C2691   1.286       .  A
O2668     Eu2683   2.433   1_556  S
O2669      C2692   1.289       .  A
O2669     Eu2682   2.446       .  S
O2670      C2693   1.281       .  A
O2670     Eu2684   2.417       .  S
O2671      C2694   1.286       .  A
O2672      C2693   1.288       .  A
O2672     Eu2682   2.455   1_554  S
O2673      C2694   1.286       .  A
O2673     Eu2683   2.439       .  S
O2674      C2689   1.309       .  A
O2674     Eu2680   2.564       .  S
O2675      C2692   1.307       .  A
O2675     Eu2681   2.552       .  S
O2676      C2691   1.307       .  A
O2677      C2690   1.311       .  A
O2678      C2687   1.289       .  A
O2678     Eu2684   2.446       .  S
O2679      C2688   1.290       .  A
O2679     Eu2684   2.445   1_556  S
Eu2681     O2696   2.380       .  S
Eu2682     O2696   2.342       .  S
Eu2682     O2686   2.341   1_556  S
Eu2683     O2685   2.340   1_554  S
Eu2683     O2698   2.344       .  S
Eu2684     O2696   2.351   1_554  S
Eu2684     O2686   2.340       .  S
C2687      C2832   1.504       .  S
C2688      C3028   1.507       .  S
C2689      C2748   1.538       .  S
C2690      C2769   1.508       .  S
C2691      C2965   1.506       .  S
C2692      C2993   1.513       .  S
C2693      C2937   1.508       .  S
C2694      C2916   1.493       .  S
H2695      O2696   0.969       .  S
H2697      O2698   0.968       .  S
N2699      H2731   1.038       .  S
N2699      C2704   1.351       .  A
N2699      C2703   1.350       .  A
N2700      C2707   1.348       .  A
N2700      C2708   1.348       .  A
N2701      H2732   1.036       .  S
N2701      C2706   1.353       .  A
N2701      C2705   1.353       .  A
N2702      C2709   1.349       .  A
N2702      C2710   1.349       .  A
C2703      C2711   1.388       .  A
C2703      C2719   1.411       .  A
C2704      C2720   1.410       .  A
C2704      C2712   1.387       .  A
C2705      C2713   1.387       .  A
C2705      C2722   1.415       .  A
C2706      C2721   1.414       .  A
C2706      C2714   1.387       .  A
C2707      C2719   1.408       .  A
C2707      C2715   1.387       .  A
C2708      C2722   1.409       .  A
C2708      C2716   1.387       .  A
C2709      C2717   1.386       .  A
C2709      C2720   1.410       .  A
C2710      C2718   1.386       .  A
C2710      C2721   1.410       .  A
C2711      C2712   1.370       .  A
C2711      H2723   1.083       .  S
C2712      H2724   1.082       .  S
C2713      C2714   1.368       .  A
C2713      H2725   1.082       .  S
C2714      H2726   1.082       .  S
C2715      C2716   1.369       .  A
C2715      H2727   1.083       .  S
C2716      H2728   1.082       .  S
C2717      C2718   1.371       .  A
C2717      H2729   1.083       .  S
C2718      H2730   1.083       .  S
C2719      C2909   1.482       .  S
C2720      C2944   1.487       .  S
C2721      C2853   1.487       .  S
C2722      C2881   1.487       .  S
C2733      C2797   1.644       .  S
C2733      C2825   1.621       .  S
C2733      C3308   1.629       .  S
C2734      C3392   1.629       .  S
C2735      C3021   1.637       .  S
C2735      C3049   1.614       .  S
C2735      C3105   1.635       .  S
C2736      C3168   1.640   1_545  S
C2737      C2738   1.413       .  A
C2737      C2742   1.423       .  A
C2737      C2755   1.453       .  S
C2738      C2743   1.526       .  S
C2739      C2740   1.423       .  A
C2739      C2744   1.453       .  S
C2740      C2756   1.448       .  S
C2741      C2742   1.438   1_545  A
C2742      C2745   1.448       .  S
C2743      C2750   1.407       .  A
C2744      N2761   1.157       .  T
C2745      N2763   1.157       .  T
C2746      C2747   1.430       .  A
C2746      C2751   1.449       .  S
C2747      C2753   1.448       .  S
C2748      C2749   1.436       .  A
C2749      C2750   1.412       .  A
C2749      C2752   1.451       .  S
C2750      C2754   1.455       .  S
C2751      N2758   1.157       .  T
C2752      N2759   1.157       .  T
C2753      N2757   1.157       .  T
C2754      N2760   1.158       .  T
C2755      N2764   1.157       .  T
C2756      N2762   1.157       .  T
C2765      C2770   1.421       .  A
C2765      C2783   1.449       .  S
C2766      C2771   1.535       .  S
C2766      C2767   1.422       .  A
C2767      C2768   1.424       .  A
C2767      C2772   1.451       .  S
C2768      C2769   1.416       .  A
C2768      C2784   1.449       .  S
C2770      C2773   1.450       .  S
C2771      C2774   1.416   1_565  A
C2772      N2789   1.157       .  T
C2773      N2791   1.157       .  T
C2774      C2775   1.431       .  A
C2774      C2779   1.453       .  S
C2775      C2776   1.444   1_545  A
C2775      C2781   1.446       .  S
C2777      C2778   1.415       .  A
C2777      C2780   1.441       .  S
C2778      C2782   1.450       .  S
C2779      N2786   1.157       .  T
C2780      N2787   1.156       .  T
C2781      N2785   1.157       .  T
C2782      N2788   1.157       .  T
C2783      N2792   1.157       .  T
C2784      N2790   1.157       .  T
C2793      C2794   1.403       .  A
C2793      C2798   1.433       .  A
C2793      C2811   1.452       .  S
C2794      C2799   1.527       .  S
C2795      C2796   1.425       .  A
C2795      C2800   1.461       .  S
C2796      C2812   1.444       .  S
C2797      C2798   1.454       .  A
C2798      C2801   1.448       .  S
C2799      C2806   1.417       .  A
C2800      N2817   1.157       .  T
C2801      N2819   1.157       .  T
C2802      C2803   1.416       .  A
C2802      C2807   1.453       .  S
C2803      C2809   1.447       .  S
C2804      C2805   1.420       .  A
C2805      C2806   1.428       .  A
C2805      C2808   1.448       .  S
C2806      C2810   1.449       .  S
C2807      N2814   1.157       .  T
C2808      N2815   1.157       .  T
C2809      N2813   1.155       .  T
C2810      N2816   1.157       .  T
C2811      N2820   1.157       .  T
C2812      N2818   1.156       .  T
C2821      C2826   1.421       .  A
C2821      C2839   1.457       .  S
C2822      C2827   1.530       .  S
C2822      C2823   1.413       .  A
C2823      C2824   1.434       .  A
C2823      C2828   1.453       .  S
C2824      C2825   1.445       .  A
C2824      C2840   1.447       .  S
C2826      C2829   1.450       .  S
C2827      C2834   1.419       .  A
C2828      N2845   1.157       .  T
C2829      N2847   1.157       .  T
C2830      C2831   1.422       .  A
C2830      C2835   1.450       .  S
C2831      C2837   1.446       .  S
C2832      C2833   1.413       .  A
C2833      C2834   1.418       .  A
C2833      C2836   1.449       .  S
C2834      C2838   1.450       .  S
C2835      N2842   1.157       .  T
C2836      N2843   1.156       .  T
C2837      N2841   1.157       .  T
C2838      N2844   1.157       .  T
C2839      N2848   1.157       .  T
C2840      N2846   1.158       .  T
C2849      C2850   1.411       .  A
C2849      C2854   1.407       .  A
C2849      C2867   1.452       .  S
C2850      C2855   1.482       .  S
C2850      C2851   1.406       .  A
C2851      C2852   1.403       .  A
C2851      C2856   1.451   1_554  S
C2852      C2853   1.414       .  A
C2852      C2868   1.451   1_554  S
C2853      C2854   1.411       .  A
C2854      C2857   1.450       .  S
C2855      C2858   1.407   1_554  A
C2855      C2862   1.404       .  A
C2856      N2873   1.157       .  T
C2857      N2875   1.157       .  T
C2858      C2859   1.407       .  A
C2858      C2863   1.451       .  S
C2859      C2860   1.419       .  A
C2859      C2865   1.452       .  S
C2860      C2861   1.424   1_556  A
C2861      C2862   1.403       .  A
C2861      C2864   1.451       .  S
C2862      C2866   1.453       .  S
C2863      N2870   1.157       .  T
C2864      N2871   1.157       .  T
C2865      N2869   1.158       .  T
C2866      N2872   1.157       .  T
C2867      N2876   1.157       .  T
C2868      N2874   1.157       .  T
C2877      C2878   1.408       .  A
C2877      C2882   1.402       .  A
C2877      C2895   1.452   1_554  S
C2878      C2883   1.484       .  S
C2878      C2879   1.414       .  A
C2879      C2880   1.407       .  A
C2879      C2884   1.451       .  S
C2880      C2881   1.409       .  A
C2880      C2896   1.451       .  S
C2881      C2882   1.415       .  A
C2882      C2885   1.451   1_554  S
C2883      C2886   1.406       .  A
C2883      C2890   1.409       .  A
C2884      N2901   1.157       .  T
C2885      N2903   1.157       .  T
C2886      C2887   1.404       .  A
C2886      C2891   1.453       .  S
C2887      C2888   1.424       .  A
C2887      C2893   1.453       .  S
C2888      C2889   1.418   1_554  A
C2889      C2890   1.404   1_556  A
C2889      C2892   1.453       .  S
C2890      C2894   1.451   1_554  S
C2891      N2898   1.157       .  T
C2892      N2899   1.157       .  T
C2893      N2897   1.158       .  T
C2894      N2900   1.157       .  T
C2895      N2904   1.157       .  T
C2896      N2902   1.157       .  T
C2905      C2906   1.409       .  A
C2905      C2910   1.403       .  A
C2905      C2923   1.451   1_554  S
C2906      C2911   1.482       .  S
C2906      C2907   1.408       .  A
C2907      C2908   1.404       .  A
C2907      C2912   1.447       .  S
C2908      C2909   1.409       .  A
C2908      C2924   1.451       .  S
C2909      C2910   1.411       .  A
C2910      C2913   1.452       .  S
C2911      C2914   1.404       .  A
C2911      C2918   1.405       .  A
C2912      N2929   1.156       .  T
C2913      N2931   1.157   1_554  T
C2914      C2915   1.406       .  A
C2914      C2919   1.453       .  S
C2915      C2916   1.425       .  A
C2915      C2921   1.451       .  S
C2916      C2917   1.422       .  A
C2917      C2918   1.406       .  A
C2917      C2920   1.452   1_554  S
C2918      C2922   1.452       .  S
C2919      N2926   1.157       .  T
C2920      N2927   1.158       .  T
C2921      N2925   1.157       .  T
C2922      N2928   1.157       .  T
C2923      N2932   1.157       .  T
C2924      N2930   1.157       .  T
C2933      C2934   1.405       .  A
C2933      C2938   1.409       .  A
C2933      C2951   1.452       .  S
C2934      C2939   1.488       .  S
C2934      C2935   1.404       .  A
C2935      C2936   1.407       .  A
C2935      C2940   1.454       .  S
C2936      C2937   1.431       .  A
C2936      C2952   1.454       .  S
C2937      C2938   1.427       .  A
C2938      C2941   1.451       .  S
C2939      C2942   1.410       .  A
C2939      C2946   1.412       .  A
C2940      N2957   1.157       .  T
C2941      N2959   1.157   1_554  T
C2942      C2943   1.405       .  A
C2942      C2947   1.451   1_554  S
C2943      C2944   1.410       .  A
C2943      C2949   1.450   1_554  S
C2944      C2945   1.410       .  A
C2945      C2946   1.408       .  A
C2945      C2948   1.451       .  S
C2946      C2950   1.451       .  S
C2947      N2954   1.157       .  T
C2948      N2955   1.157       .  T
C2949      N2953   1.157       .  T
C2950      N2956   1.157       .  T
C2951      N2960   1.157       .  T
C2952      N2958   1.158   1_554  T
C2961      C2962   1.420       .  A
C2961      C2966   1.425       .  A
C2961      C2979   1.450       .  S
C2962      C2967   1.526       .  S
C2963      C2964   1.416       .  A
C2963      C2968   1.450       .  S
C2964      C2980   1.450       .  S
C2965      C2966   1.416       .  A
C2966      C2969   1.449       .  S
C2967      C2970   1.403       .  A
C2967      C2974   1.411       .  A
C2968      N2985   1.157       .  T
C2969      N2987   1.157       .  T
C2970      C2971   1.420       .  A
C2970      C2975   1.456       .  S
C2971      C2972   1.455       .  A
C2971      C2977   1.453       .  S
C2972      C2973   1.445       .  A
C2973      C2974   1.431       .  A
C2974      C2978   1.453       .  S
C2975      N2982   1.157       .  T
C2976      N2983   1.158       .  T
C2977      N2981   1.158       .  T
C2979      N2988   1.157       .  T
C2980      N2986   1.157       .  T
C2989      C2994   1.425       .  A
C2989      C3007   1.449       .  S
C2990      C2995   1.526       .  S
C2990      C2991   1.414       .  A
C2991      C2992   1.416       .  A
C2991      C2996   1.453       .  S
C2992      C2993   1.418       .  A
C2992      C3008   1.448       .  S
C2994      C2997   1.447       .  S
C2995      C2998   1.398       .  A
C2996      N3013   1.158       .  T
C2997      N3015   1.157       .  T
C2998      C2999   1.424       .  A
C2998      C3003   1.460       .  S
C2999      C3000   1.465       .  A
C2999      C3005   1.448       .  S
C3001      C3002   1.430       .  A
C3001      C3004   1.449       .  S
C3002      C3006   1.452       .  S
C3003      N3010   1.157       .  T
C3004      N3011   1.157       .  T
C3005      N3009   1.156       .  T
C3006      N3012   1.157       .  T
C3007      N3016   1.157       .  T
C3008      N3014   1.156       .  T
C3017      C3022   1.421       .  A
C3017      C3035   1.458       .  S
C3018      C3023   1.516       .  S
C3018      C3019   1.399       .  A
C3019      C3020   1.428       .  A
C3019      C3024   1.456       .  S
C3020      C3021   1.453       .  A
C3020      C3036   1.446       .  S
C3022      C3025   1.447       .  S
C3023      C3026   1.416       .  A
C3024      N3041   1.157       .  T
C3025      N3043   1.156       .  T
C3026      C3027   1.422       .  A
C3026      C3031   1.450       .  S
C3027      C3028   1.417       .  A
C3027      C3033   1.450       .  S
C3029      C3030   1.413       .  A
C3029      C3032   1.450       .  S
C3030      C3034   1.452       .  S
C3031      N3038   1.157       .  T
C3032      N3039   1.156       .  T
C3033      N3037   1.158       .  T
C3034      N3040   1.157       .  T
C3035      N3044   1.157       .  T
C3036      N3042   1.158       .  T
C3045      C3050   1.432       .  A
C3045      C3063   1.451       .  S
C3046      C3051   1.521       .  S
C3046      C3047   1.399       .  A
C3047      C3048   1.416       .  A
C3047      C3052   1.456       .  S
C3048      C3049   1.453       .  A
C3048      C3064   1.452       .  S
C3050      C3053   1.446       .  S
C3051      C3054   1.414       .  A
C3052      N3069   1.157       .  T
C3053      N3071   1.158       .  T
C3054      C3055   1.418       .  A
C3054      C3059   1.448       .  S
C3055      C3056   1.416       .  A
C3055      C3061   1.451       .  S
C3057      C3058   1.424       .  A
C3057      C3060   1.446       .  S
C3058      C3062   1.450       .  S
C3059      N3066   1.157       .  T
C3060      N3067   1.156       .  T
C3061      N3065   1.157       .  T
C3062      N3068   1.157       .  T
C3063      N3072   1.157       .  T
C3064      N3070   1.157       .  T
C3073      C3074   1.413       .  A
C3073      C3078   1.437       .  A
C3073      C3091   1.452       .  S
C3074      C3079   1.532       .  S
C3074      C3075   1.400       .  A
C3075      C3076   1.422       .  A
C3075      C3080   1.456       .  S
C3076      C3077   1.457       .  A
C3076      C3092   1.451       .  S
C3077      C3078   1.447       .  A
C3078      C3081   1.445       .  S
C3079      C3082   1.415       .  A
C3079      C3086   1.423       .  A
C3080      N3097   1.157       .  T
C3081      N3099   1.158   1_655  T
C3082      C3083   1.417       .  A
C3082      C3087   1.449       .  S
C3083      C3084   1.415       .  A
C3083      C3089   1.450       .  S
C3084      C3085   1.414       .  A
C3085      C3086   1.428       .  A
C3085      C3088   1.450       .  S
C3086      C3090   1.449       .  S
C3087      N3094   1.157       .  T
C3088      N3095   1.157       .  T
C3089      N3093   1.156       .  T
C3090      N3096   1.157       .  T
C3091      N3100   1.157       .  T
C3092      N3098   1.157       .  T
C3101      C3102   1.396       .  A
C3101      C3106   1.418       .  A
C3101      C3119   1.459       .  S
C3102      C3107   1.520       .  S
C3102      C3103   1.406       .  A
C3103      C3104   1.432       .  A
C3103      C3108   1.452       .  S
C3104      C3105   1.445       .  A
C3104      C3120   1.448       .  S
C3105      C3106   1.464       .  A
C3106      C3109   1.451       .  S
C3107      C3110   1.419       .  A
C3107      C3114   1.411       .  A
C3108      N3125   1.157       .  T
C3109      N3127   1.156       .  T
C3110      C3111   1.426       .  A
C3110      C3115   1.449       .  S
C3111      C3112   1.416       .  A
C3111      C3117   1.449       .  S
C3112      C3113   1.418       .  A
C3113      C3114   1.413       .  A
C3113      C3116   1.450       .  S
C3114      C3118   1.451       .  S
C3115      N3122   1.157       .  T
C3116      N3123   1.157       .  T
C3117      N3121   1.157       .  T
C3118      N3124   1.157       .  T
C3119      N3128   1.157       .  T
C3120      N3126   1.157       .  T
C3129      C3130   1.416       .  A
C3129      C3134   1.414       .  A
C3129      C3147   1.450       .  S
C3130      C3135   1.522       .  S
C3130      C3131   1.423       .  A
C3131      C3132   1.421       .  A
C3131      C3136   1.450       .  S
C3132      C3133   1.409       .  A
C3132      C3148   1.448       .  S
C3133      C3134   1.414       .  A
C3134      C3137   1.450       .  S
C3135      C3138   1.412       .  A
C3135      C3142   1.399       .  A
C3136      N3153   1.157       .  T
C3137      N3155   1.156       .  T
C3138      C3139   1.433       .  A
C3138      C3143   1.453       .  S
C3139      C3140   1.446       .  A
C3139      C3145   1.446       .  S
C3140      C3141   1.456       .  A
C3141      C3142   1.417       .  A
C3141      C3144   1.450       .  S
C3142      C3146   1.458       .  S
C3143      N3150   1.157       .  T
C3144      N3151   1.157       .  T
C3146      N3152   1.157       .  T
C3147      N3156   1.157       .  T
C3148      N3154   1.157       .  T
C3157      C3158   1.418       .  A
C3157      C3162   1.424       .  A
C3157      C3175   1.448       .  S
C3158      C3163   1.525       .  S
C3158      C3159   1.415       .  A
C3159      C3160   1.417       .  A
C3159      C3164   1.452       .  S
C3160      C3161   1.420       .  A
C3160      C3176   1.451       .  S
C3161      C3162   1.415       .  A
C3162      C3165   1.449       .  S
C3163      C3166   1.398       .  A
C3163      C3170   1.406       .  A
C3164      N3181   1.157       .  T
C3165      N3183   1.157       .  T
C3166      C3167   1.422       .  A
C3166      C3171   1.460       .  S
C3167      C3168   1.464       .  A
C3167      C3173   1.450       .  S
C3168      C3169   1.450       .  A
C3169      C3170   1.432       .  A
C3169      C3172   1.449       .  S
C3170      C3174   1.453       .  S
C3171      N3178   1.157       .  T
C3172      N3179   1.157   1_565  T
C3173      N3177   1.157       .  T
C3174      N3180   1.157       .  T
C3175      N3184   1.157       .  T
C3176      N3182   1.157       .  T
C3185      C3186   1.407       .  A
C3185      C3190   1.400       .  A
C3185      C3203   1.452       .  S
C3186      C3191   1.479       .  S
C3186      C3187   1.412       .  A
C3187      C3188   1.405       .  A
C3187      C3192   1.452       .  S
C3188      C3189   1.411       .  A
C3188      C3204   1.450       .  S
C3189      C3190   1.413       .  A
C3190      C3193   1.451       .  S
C3191      C3194   1.407       .  A
C3191      C3198   1.406       .  A
C3192      N3209   1.157       .  T
C3193      N3211   1.157       .  T
C3194      C3195   1.404       .  A
C3194      C3199   1.453       .  S
C3195      C3196   1.422       .  A
C3195      C3201   1.453       .  S
C3196      C3197   1.419       .  A
C3197      C3198   1.402       .  A
C3197      C3200   1.453       .  S
C3198      C3202   1.452       .  S
C3199      N3206   1.157       .  T
C3200      N3207   1.157       .  T
C3201      N3205   1.158       .  T
C3202      N3208   1.157       .  T
C3203      N3212   1.157       .  T
C3204      N3210   1.157       .  T
C3213      C3214   1.405       .  A
C3213      C3218   1.410       .  A
C3213      C3231   1.453       .  S
C3214      C3219   1.489       .  S
C3214      C3215   1.405       .  A
C3215      C3216   1.408       .  A
C3215      C3220   1.450       .  S
C3216      C3217   1.423       .  A
C3216      C3232   1.452       .  S
C3217      C3218   1.425       .  A
C3218      C3221   1.451       .  S
C3219      C3222   1.408       .  A
C3219      C3226   1.412       .  A
C3220      N3237   1.157       .  T
C3221      N3239   1.157       .  T
C3222      C3223   1.407       .  A
C3222      C3227   1.450       .  S
C3223      C3224   1.414       .  A
C3223      C3229   1.451       .  S
C3224      C3225   1.410       .  A
C3225      C3226   1.407       .  A
C3225      C3228   1.451       .  S
C3226      C3230   1.451       .  S
C3227      N3234   1.157       .  T
C3228      N3235   1.157       .  T
C3229      N3233   1.157       .  T
C3230      N3236   1.157       .  T
C3231      N3240   1.157       .  T
C3232      N3238   1.157       .  T
C3241      C3242   1.410       .  A
C3241      C3246   1.405       .  A
C3241      C3259   1.451       .  S
C3242      C3247   1.493       .  S
C3242      C3243   1.414       .  A
C3243      C3244   1.410       .  A
C3243      C3248   1.450       .  S
C3244      C3245   1.409       .  A
C3244      C3260   1.450       .  S
C3245      C3246   1.412       .  A
C3246      C3249   1.451       .  S
C3247      C3250   1.408       .  A
C3247      C3254   1.406       .  A
C3248      N3265   1.157       .  T
C3249      N3267   1.157       .  T
C3250      C3251   1.412       .  A
C3250      C3255   1.452       .  S
C3251      C3252   1.426       .  A
C3251      C3257   1.451       .  S
C3252      C3253   1.425       .  A
C3253      C3254   1.407       .  A
C3253      C3256   1.453       .  S
C3254      C3258   1.453       .  S
C3255      N3262   1.157       .  T
C3256      N3263   1.158       .  T
C3257      N3261   1.158       .  T
C3258      N3264   1.157       .  T
C3259      N3268   1.157       .  T
C3260      N3266   1.157       .  T
C3269      C3270   1.406       .  A
C3269      C3274   1.403       .  A
C3269      C3287   1.452       .  S
C3270      C3275   1.484       .  S
C3270      C3271   1.408       .  A
C3271      C3272   1.406       .  A
C3271      C3276   1.452       .  S
C3272      C3273   1.420       .  A
C3272      C3288   1.453       .  S
C3273      C3274   1.420       .  A
C3274      C3277   1.450       .  S
C3275      C3278   1.409       .  A
C3275      C3282   1.410       .  A
C3276      N3293   1.157       .  T
C3277      N3295   1.157       .  T
C3278      C3279   1.404       .  A
C3278      C3283   1.452       .  S
C3279      C3280   1.415       .  A
C3279      C3285   1.452       .  S
C3280      C3281   1.411       .  A
C3281      C3282   1.405       .  A
C3281      C3284   1.450       .  S
C3282      C3286   1.450       .  S
C3283      N3290   1.157       .  T
C3284      N3291   1.157       .  T
C3285      N3289   1.157       .  T
C3286      N3292   1.157       .  T
C3287      N3296   1.157       .  T
C3288      N3294   1.158       .  T
C3297      C3298   1.407       .  A
C3297      C3302   1.410       .  A
C3297      C3315   1.454       .  S
C3298      C3303   1.512       .  S
C3298      C3299   1.416       .  A
C3299      C3300   1.424       .  A
C3299      C3304   1.449       .  S
C3300      C3301   1.416       .  A
C3300      C3316   1.448       .  S
C3301      C3302   1.422       .  A
C3302      C3305   1.445       .  S
C3303      C3306   1.402       .  A
C3303      C3310   1.395       .  A
C3304      N3321   1.157       .  T
C3305      N3323   1.154       .  T
C3306      C3307   1.427       .  A
C3306      C3311   1.451       .  S
C3307      C3308   1.447       .  A
C3307      C3313   1.450       .  S
C3308      C3309   1.465       .  A
C3309      C3310   1.418       .  A
C3309      C3312   1.450       .  S
C3310      C3314   1.461       .  S
C3311      N3318   1.157       .  T
C3312      N3319   1.157       .  T
C3314      N3320   1.157       .  T
C3315      N3324   1.157       .  T
C3316      N3322   1.157       .  T
C3325      C3326   1.416       .  A
C3325      C3330   1.419       .  A
C3325      C3343   1.449       .  S
C3326      C3331   1.531       .  S
C3326      C3327   1.419       .  A
C3327      C3328   1.426       .  A
C3327      C3332   1.450       .  S
C3328      C3329   1.417       .  A
C3328      C3344   1.449       .  S
C3329      C3330   1.418       .  A
C3330      C3333   1.450       .  S
C3331      C3334   1.411       .  A
C3331      C3338   1.403       .  A
C3332      N3349   1.157       .  T
C3333      N3351   1.156       .  T
C3334      C3335   1.434       .  A
C3334      C3339   1.453       .  S
C3335      C3336   1.450       .  A
C3335      C3341   1.448       .  S
C3336      C3337   1.454       .  A
C3337      C3338   1.423       .  A
C3337      C3340   1.451       .  S
C3338      C3342   1.455       .  S
C3339      N3346   1.157       .  T
C3340      N3347   1.157       .  T
C3342      N3348   1.157       .  T
C3343      N3352   1.157       .  T
C3344      N3350   1.157       .  T
C3353      C3354   1.420       .  A
C3353      C3358   1.420       .  A
C3353      C3371   1.452       .  S
C3354      C3359   1.531       .  S
C3354      C3355   1.422       .  A
C3355      C3356   1.424       .  A
C3355      C3360   1.447       .  S
C3356      C3357   1.412       .  A
C3356      C3372   1.449       .  S
C3357      C3358   1.416       .  A
C3358      C3361   1.450       .  S
C3359      C3362   1.417       .  A
C3359      C3366   1.406       .  A
C3360      N3377   1.157       .  T
C3361      N3379   1.157       .  T
C3362      C3363   1.438       .  A
C3362      C3367   1.447       .  S
C3363      C3364   1.440       .  A
C3363      C3369   1.446       .  S
C3364      C3365   1.440       .  A
C3365      C3366   1.411       .  A
C3365      C3368   1.447       .  S
C3366      C3370   1.452       .  S
C3367      N3374   1.157       .  T
C3368      N3375   1.157       .  T
C3369      N3373   1.157   1_565  T
C3370      N3376   1.157       .  T
C3371      N3380   1.158       .  T
C3372      N3378   1.157       .  T
C3381      C3382   1.412       .  A
C3381      C3386   1.419       .  A
C3381      C3399   1.452       .  S
C3382      C3387   1.535       .  S
C3382      C3383   1.421       .  A
C3383      C3384   1.431       .  A
C3383      C3388   1.447       .  S
C3384      C3385   1.419       .  A
C3384      C3400   1.449       .  S
C3385      C3386   1.423       .  A
C3386      C3389   1.444       .  S
C3387      C3390   1.408       .  A
C3387      C3394   1.407       .  A
C3388      N3405   1.157       .  T
C3389      N3407   1.154       .  T
C3390      C3391   1.433       .  A
C3390      C3395   1.450       .  S
C3391      C3392   1.443       .  A
C3391      C3397   1.444       .  S
C3392      C3393   1.449       .  A
C3393      C3394   1.428       .  A
C3393      C3396   1.445       .  S
C3394      C3398   1.455       .  S
C3395      N3402   1.157       .  T
C3396      N3403   1.157       .  T
C3397      N3401   1.157       .  T
C3398      N3404   1.158       .  T
C3399      N3408   1.157       .  T
C3400      N3406   1.157       .  T
