geometry optimzed in LAMMPS
_audit_creation_date              2020-11-30 
_audit_creation_method            'lammps2cif' 
_symmetry_space_group_name_H-M    'P1' 
_symmetry_Int_Tables_number       1 
_symmetry_cell_setting            triclinic 
loop_ 
_symmetry_equiv_pos_as_xyz 
  x,y,z 
_cell_length_a                    34.24891175 
_cell_length_b                    33.90407371044615 
_cell_length_c                    26.195496539532716 
_cell_angle_alpha                 88.7367051021395 
_cell_angle_beta                  90.35110318216326 
_cell_angle_gamma                 88.86408056548862 
loop_ 
_atom_site_label 
_atom_site_type_symbol 
_atom_site_fract_x 
_atom_site_fract_y 
_atom_site_fract_z 
_atom_site_charge 
O1          O  0.25584467  0.17851048  0.33079398    -0.86400
O2          O  0.25102630  0.17537149  0.62401914    -0.86500
O3          O  0.32202744  0.13983912  0.50034462    -0.88200
O4          O  0.19995471  0.12944909  0.48477535    -0.87000
O5          O  0.14910322  0.17375387  0.49073884    -0.86600
O6          O  0.36585507  0.19004325  0.49755014    -0.87900
O7          O  0.25540948  0.13300110  0.55723400    -0.86400
O8          O  0.26483870  0.13312436  0.39657449    -0.86000
Zr9        Zr  0.25818810  0.16756558  0.47665142     2.84300
O10         O  0.21547219  0.20328849  0.52856473    -1.08000
O11         O  0.29494854  0.20815087  0.42334133    -1.08700
C12         C  0.26128543  0.14268227  0.34874615     1.06700
C13         C  0.25341134  0.13992891  0.60513494     1.06700
C14         C  0.35541700  0.15496666  0.51044524     1.09700
C15         C  0.16441663  0.13877130  0.49530017     1.07400
H16         H  0.30651187  0.19522217  0.55506632     0.33000
O17         O  0.29035831  0.20990042  0.53092731    -1.28900
H18         H  0.20038695  0.18490995  0.40177239     0.32700
O19         O  0.21544154  0.20291959  0.42173211    -1.30600
O20         O  0.24779278  0.31153567  0.62262571    -0.86400
O21         O  0.24741854  0.31427668  0.32980313    -0.87900
O22         O  0.36073606  0.25403379  0.55968501    -0.86400
O23         O  0.13755243  0.24547045  0.55298747    -0.86500
O24         O  0.14001828  0.23878035  0.39276261    -0.86200
O25         O  0.36319493  0.24464472  0.39829025    -0.86000
O26         O  0.30251686  0.35796102  0.47104958    -0.86400
O27         O  0.18103235  0.34990217  0.46570416    -0.85800
O28         O  0.35529588  0.31575598  0.47177711    -0.86900
O29         O  0.13682852  0.30055692  0.46070970    -0.86100
O30         O  0.31595157  0.24864233  0.62472579    -0.86500
O31         O  0.32003003  0.24503742  0.33084757    -0.86200
O32         O  0.18514293  0.24462099  0.32826265    -0.85800
O33         O  0.18032170  0.24726076  0.62072458    -0.86200
O34         O  0.24692273  0.35675630  0.55599341    -0.86500
O35         O  0.24099992  0.35563810  0.39719412    -0.87900
Zr36       Zr  0.24862539  0.24447033  0.58530714     2.83100
Zr37       Zr  0.25228174  0.24531308  0.36805205     2.83500
Zr38       Zr  0.32834010  0.24986934  0.47809295     2.84100
Zr39       Zr  0.17359847  0.23943889  0.47426888     2.83400
Zr40       Zr  0.24478493  0.32069149  0.47668074     2.84200
O41         O  0.21065608  0.28038889  0.42254527    -1.08400
O42         O  0.28638496  0.28533225  0.53139508    -1.08000
C43         C  0.24819136  0.34747682  0.60403016     1.06700
C44         C  0.24330537  0.34931820  0.34935524     1.09300
C45         C  0.35155981  0.25169029  0.60725269     1.06900
C46         C  0.14506501  0.24823629  0.60108141     1.07200
C47         C  0.14939732  0.24254600  0.34533590     1.06800
C48         C  0.35541430  0.24378878  0.35007611     1.06400
C49         C  0.33922391  0.35049354  0.46920814     1.06800
C50         C  0.14649469  0.33705018  0.45835953     1.06300
H51         H  0.30230579  0.30411297  0.40225090     0.33000
O52         O  0.28713932  0.28631210  0.42307704    -1.29500
H53         H  0.18938740  0.29840163  0.54742387     0.33000
O54         O  0.20702251  0.28130648  0.52907749    -1.30900
N55         N  0.48882677  0.49460847  0.48960740    -0.36500
N56         N  0.44073577  0.02774565  0.56974385    -0.57100
N57         N  0.50981330  0.03232623  0.64889146    -0.36500
N58         N  0.04921254  0.00078667  0.56241361    -0.57100
C59         C  0.45505062  0.49968697  0.46407695     0.27100
C60         C  0.01076796  0.47930750  0.47012580     0.27100
C61         C  0.48385638  0.06118097  0.66113214     0.27100
C62         C  0.04550630  0.05393298  0.65573236     0.27100
C63         C  0.41484043  0.50551214  0.53972595     0.35700
C64         C  0.43096148  0.02951984  0.61921451     0.35700
C65         C  0.06192491  0.47066478  0.53454749     0.35700
C66         C  0.07151201  0.00144329  0.60450869     0.35700
C67         C  0.46147456  0.49397509  0.41244719    -0.21800
C68         C  0.99408561  0.47778881  0.42200031    -0.21800
C69         C  0.50358344  0.09394469  0.67681710    -0.21800
C70         C  0.04387725  0.09261034  0.67185349    -0.21800
C71         C  0.38709141  0.49268514  0.57439016    -0.22800
C72         C  0.39599237  0.01058467  0.62731502    -0.22800
C73         C  0.09109309  0.45009452  0.56152973    -0.22800
C74         C  0.09957193  0.97149696  0.60297946    -0.22800
C75         C  0.41975798  0.49310499  0.48918136    -0.18200
C76         C  0.04616421  0.46197651  0.48641371    -0.18200
C77         C  0.07670256  0.03741048  0.62766281    -0.18200
C78         C  0.44396782  0.06108989  0.64722326    -0.18200
H79         H  0.43941781  0.49210706  0.38288041     0.14700
H80         H  0.00720950  0.46597770  0.38795482     0.14700
H81         H  0.49069759  0.12242642  0.68506640     0.14700
H82         H  0.06759819  0.11323864  0.67219620     0.14700
H83         H  0.36254940  0.47393343  0.56714078     0.13000
H84         H  0.37898854  0.01000614  0.66191983     0.13000
H85         H  0.10703475  0.42392657  0.54999999     0.13000
H86         H  0.12414418  0.96693525  0.62876290     0.13000
H87         H  0.49026421  0.48753651  0.52848258     0.26300
H88         H  0.50301266  0.00546302  0.63255783     0.26300
O89         O  0.51014749  0.42941209  0.83240826    -0.86400
O90         O  0.50517691  0.42977987  0.12573462    -0.86500
O91         O  0.08999275  0.40890959  0.99773871    -0.88200
O92         O  0.47076039  0.37292417  0.98122336    -0.87000
O93         O  0.41261182  0.40739723  0.98447429    -0.86600
O94         O  0.12289863  0.46714182  0.99927441    -0.87900
O95         O  0.02174116  0.39121089  0.06075453    -0.86400
O96         O  0.02714115  0.39106263  0.89847116    -0.86000
Zr97       Zr  0.52104797  0.42055974  0.97922504     2.84300
O98         O  0.47248575  0.44906455  0.03053679    -1.08000
O99         O  0.05111616  0.47211909  0.92480686    -1.08700
C100        C  0.01878617  0.39850309  0.85103707     1.06700
C101        C  0.51394690  0.39468781  0.10924091     1.06700
C102        C  0.12009702  0.42974512  0.00789109     1.09700
C103        C  0.43367932  0.37528345  0.98677047     1.07400
H104        H  0.06354915  0.46001456  0.05435539     0.33000
O105        O  0.04555121  0.47316835  0.03113744    -1.28900
H106        H  0.46165314  0.42982411  0.90447413     0.32700
O107        O  0.47422727  0.44976419  0.92407063    -1.30600
O108        O  0.49394927  0.06435253  0.11842342    -0.86400
O109        O  0.49561131  0.06530068  0.82850849    -0.87900
O110        O  0.10813841  0.52297597  0.05972413    -0.86400
O111        O  0.38868768  0.48220752  0.05438111    -0.86500
O112        O  0.39333795  0.96854446  0.89467514    -0.86200
O113        O  0.11181739  0.02247296  0.90080895    -0.86000
O114        O  0.02668906  0.12538998  0.98719973    -0.86400
O115        O  0.41268853  0.08732906  0.96016629    -0.85800
O116        O  0.08271988  0.08885860  0.00183548    -0.86900
O117        O  0.37873285  0.02996606  0.96033912    -0.86100
O118        O  0.06628929  0.50545419  0.12409349    -0.86500
O119        O  0.07136553  0.00524467  0.83494259    -0.86200
O120        O  0.43492528  0.98927534  0.83116971    -0.82800
O121        O  0.43141185  0.49236316  0.12083748    -0.86200
O122        O  0.47487354  0.10602310  0.05222181    -0.86500
O123        O  0.48061291  0.10851259  0.89229913    -0.87900
Zr124      Zr  0.49894488  0.49691909  0.08459514     2.83100
Zr125      Zr  0.50278791  0.99679074  0.86795210     2.83500
Zr126      Zr  0.07573349  0.51999213  0.97895687     2.84100
Zr127      Zr  0.42603398  0.47788219  0.97504844     2.83400
Zr128      Zr  0.48128284  0.07163661  0.97213982     2.84200
O129        O  0.45448096  0.02418197  0.92077075    -1.08400
O130        O  0.02545208  0.04655954  0.02802050    -1.08000
C131        C  0.48440964  0.09912333  0.09942356     1.06700
C132        C  0.48778019  0.10067611  0.84539853     1.09300
C133        C  0.10123341  0.51320563  0.10634242     1.06900
C134        C  0.39635641  0.48822742  0.10197830     1.07200
C135        C  0.40077609  0.97801706  0.84785400     1.06800
C136        C  0.10563336  0.01313762  0.85392996     1.06400
C137        C  0.06148630  0.12073356  0.00476574     1.06800
C138        C  0.38096738  0.06772987  0.95680008     1.06300
H139        H  0.04357509  0.06942187  0.90391828     0.33000
O140        O  0.03013205  0.04916502  0.92298078    -1.29500
H141        H  0.43274860  0.04019116  0.04537841     0.33000
O142        O  0.45271734  0.02584225  0.02718339    -1.30900
N143        N  0.28231034  0.29847824  0.13981813    -0.36500
N144        N  0.19935405  0.27700023  0.11280667    -0.57100
N145        N  0.22071768  0.20561020  0.06710381    -0.36500
N146        N  0.29937806  0.22488392  0.08447914    -0.57100
C147        C  0.26324442  0.33384663  0.13698894     0.27100
C148        C  0.31877615  0.30466933  0.12284784     0.27100
C149        C  0.18279724  0.21002000  0.05483692     0.27100
C150        C  0.23769570  0.18473449  0.02997580     0.27100
C151        C  0.20001524  0.30531788  0.14758240     0.35700
C152        C  0.16686486  0.25637433  0.12111810     0.35700
C153        C  0.33438319  0.23543829  0.10244156     0.35700
C154        C  0.30426287  0.18898978  0.06432459     0.35700
C155        C  0.28896440  0.36334156  0.12401294    -0.21800
C156        C  0.32437433  0.34497991  0.11604759    -0.21800
C157        C  0.17512650  0.19077488  0.00969569    -0.21800
C158        C  0.21018542  0.17499282  0.99365989    -0.21800
C159        C  0.16726794  0.30334464  0.17815129    -0.22800
C160        C  0.14659431  0.27137273  0.16197683    -0.22800
C161        C  0.36166366  0.20534215  0.09529049    -0.22800
C162        C  0.34243784  0.17556078  0.07162616    -0.22800
C163        C  0.22238218  0.33854983  0.13898834    -0.18200
C164        C  0.34414663  0.27510267  0.10389999    -0.18200
C165        C  0.27700726  0.17291788  0.03051835    -0.18200
C166        C  0.15531305  0.22710518  0.08774176    -0.18200
H167        H  0.28232867  0.39425506  0.11659489     0.14700
H168        H  0.35014790  0.35932390  0.10158305     0.14700
H169        H  0.14745562  0.18816922  0.99023371     0.14700
H170        H  0.21476115  0.15783495  0.95978098     0.14700
H171        H  0.15867274  0.32347536  0.20772211     0.13000
H172        H  0.12003640  0.26074806  0.17820490     0.13000
H173        H  0.39289585  0.20659247  0.10150096     0.13000
H174        H  0.35580196  0.14884065  0.05728262     0.13000
H175        H  0.27001011  0.27112636  0.14769052     0.26300
H176        H  0.23290756  0.21218533  0.10239724     0.26300
C177        C  0.00139901  0.24768372  0.22510610    -0.02400
C178        C  0.25085479  0.99892638  0.22519697    -0.02400
C179        C  0.00012630  0.25516763  0.72603129    -0.02400
C180        C  0.25075871  0.99122004  0.73172236    -0.02400
C181        C  0.20997839  0.49904729  0.14057624    -0.21200
C182        C  0.21105180  0.49997883  0.19398926    -0.09200
C183        C  0.17471377  0.00527984  0.21927591     0.29600
C184        C  0.13895333  0.00888575  0.19201256    -0.21200
C185        C  0.13822037  0.50847350  0.13817362    -0.09200
C186        C  0.17494887  0.50422674  0.11330660     0.29600
F187        F  0.17773573  0.50445002  0.06166282    -0.19800
H188        H  0.23619630  0.49421176  0.11881834     0.18000
H189        H  0.11190728  0.01209417  0.21284326     0.18000
F190        F  0.17346779  0.00642733  0.27100508    -0.19800
C191        C  0.35472568  0.46407815  0.17509234    -0.21200
C192        C  0.36147322  0.49187992  0.13615308    -0.09200
C193        C  0.33309369  0.52202167  0.12777382     0.29600
C194        C  0.29822812  0.52321997  0.15623989    -0.21200
C195        C  0.28944823  0.49383391  0.19345858    -0.09200
C196        C  0.32120890  0.96764931  0.20559211     0.29600
F197        F  0.32002167  0.94282477  0.24678666    -0.19800
H198        H  0.37831260  0.94432601  0.18721301     0.18000
H199        H  0.27770261  0.54742560  0.14895120     0.18000
F200        F  0.33961284  0.55115654  0.09276191    -0.19800
C201        C  0.48154497  0.31784816  0.20884401    -0.21200
C202        C  0.00359136  0.28847511  0.19508024    -0.09200
C203        C  0.03375431  0.29494703  0.15937644     0.29600
C204        C  0.03800549  0.33145145  0.13401889    -0.21200
C205        C  0.01232856  0.36344215  0.14274658    -0.09200
C206        C  0.48635578  0.35475837  0.18389082     0.29600
F207        F  0.46285847  0.38559902  0.19682948    -0.19800
H208        H  0.46057034  0.31675248  0.23941545     0.18000
H209        H  0.06072139  0.33416649  0.10561328     0.18000
F210        F  0.05762647  0.26475222  0.14603610    -0.19800
C211        C  0.48437624  0.17293831  0.10887781    -0.21200
C212        C  0.48625857  0.13505163  0.13225259    -0.09200
C213        C  0.99427570  0.13754342  0.18611482     0.29600
C214        C  0.99813895  0.17233787  0.21412522    -0.21200
C215        C  0.99735226  0.21051406  0.19047859    -0.09200
C216        C  0.48850863  0.20747621  0.13679077     0.29600
F217        F  0.48389913  0.24204764  0.11058060    -0.19800
H218        H  0.47974553  0.17623380  0.06806256     0.18000
H219        H  0.00251153  0.16943011  0.25501274     0.18000
F220        F  0.99654195  0.10219977  0.21138936    -0.19800
C221        C  0.18412553  0.39388626  0.02119086    -0.21200
C222        C  0.15017026  0.41102235  0.04083826    -0.09200
C223        C  0.14345997  0.40912982  0.09376665     0.29600
C224        C  0.16984295  0.38948796  0.12644802    -0.21200
C225        C  0.20252479  0.36972977  0.10688315    -0.09200
C226        C  0.20995271  0.37276887  0.05379571     0.29600
F227        F  0.24022369  0.35260438  0.03275371    -0.19800
H228        H  0.18950572  0.39501785  0.98049202     0.18000
H229        H  0.16333130  0.38745403  0.16680006     0.18000
F230        F  0.11019504  0.42444784  0.11378408    -0.19800
C231        C  0.37705281  0.33063745  0.98887484    -0.21200
C232        C  0.41513734  0.33899594  0.00401969    -0.09200
C233        C  0.43281949  0.31711556  0.04463292     0.29600
C234        C  0.41033271  0.29302122  0.07567939    -0.21200
C235        C  0.37113369  0.28830336  0.06397689    -0.09200
C236        C  0.35547650  0.30399687  0.01777432     0.29600
F237        F  0.31761342  0.29793665  0.00495661    -0.19800
H238        H  0.36328203  0.34667252  0.95715354     0.18000
H239        H  0.42239291  0.28106304  0.11104140     0.18000
F240        F  0.47034446  0.32304471  0.05849463    -0.19800
C241        C  0.34591841  0.13073838  0.93776240    -0.21200
C242        C  0.34445195  0.09098235  0.95371542    -0.09200
C243        C  0.31135849  0.07749161  0.97991354     0.29600
C244        C  0.28519898  0.10484481  0.00016917    -0.21200
C245        C  0.29147820  0.14515096  0.99252698    -0.09200
C246        C  0.31929088  0.15792206  0.95708138     0.29600
F247        F  0.32456225  0.19704861  0.94797303    -0.19800
H248        H  0.37045210  0.14148821  0.91593221     0.18000
H249        H  0.26311626  0.09483803  0.02663642     0.18000
F250        F  0.30770611  0.03880284  0.99307707    -0.19800
C251        C  0.07012728  0.19238814  0.02251366    -0.21200
C252        C  0.07668146  0.15245851  0.03580855    -0.09200
C253        C  0.09674354  0.14252733  0.08141646     0.29600
C254        C  0.11536251  0.17152109  0.10846306    -0.21200
C255        C  0.11639625  0.20995978  0.08816649    -0.09200
C256        C  0.09027461  0.22134563  0.04866845     0.29600
F257        F  0.08999878  0.25889701  0.02962055    -0.19800
H258        H  0.05278460  0.20072977  0.98914336     0.18000
H259        H  0.13473259  0.16257334  0.13968243     0.18000
F260        F  0.10063288  0.10445341  0.09798005    -0.19800
C261        C  0.32330674  0.01157661  0.74985860    -0.21200
C262        C  0.29094977  0.98724268  0.76165127    -0.09200
C263        C  0.29967303  0.45744295  0.79573493     0.29600
C264        C  0.33575584  0.45413012  0.82180845    -0.21200
C265        C  0.36574307  0.97772628  0.81279783    -0.09200
C266        C  0.35978158  0.00683822  0.77458204     0.29600
F267        F  0.38874636  0.03203347  0.76240898    -0.19800
H268        H  0.32128372  0.03445661  0.72067473     0.18000
H269        H  0.33917926  0.43158815  0.85153304     0.18000
F270        F  0.27157412  0.43112692  0.80746514    -0.19800
C271        C  0.17860801  0.00579036  0.84642685    -0.21200
C272        C  0.14187831  0.00926818  0.82183234    -0.09200
C273        C  0.14125865  0.00791478  0.76824011     0.29600
C274        C  0.17620852  0.00205303  0.74084866    -0.21200
C275        C  0.21320774  0.99674440  0.76556832    -0.09200
C276        C  0.21346391  0.00035009  0.81938388     0.29600
F277        F  0.24702550  0.00096258  0.84685150    -0.19800
H278        H  0.18073279  0.00742072  0.88759065     0.18000
H279        H  0.17443292  0.00117192  0.69959295     0.18000
F280        F  0.10711541  0.01284953  0.74211775    -0.19800
C281        C  0.46213132  0.16792960  0.81720081    -0.21200
C282        C  0.98968809  0.13998710  0.81062429    -0.09200
C283        C  0.02207435  0.14703905  0.77953665     0.29600
C284        C  0.02544054  0.18298567  0.75190324    -0.21200
C285        C  0.99804147  0.21476307  0.75719361    -0.09200
C286        C  0.46626215  0.20439422  0.79120413     0.29600
F287        F  0.44014863  0.23376613  0.80131029    -0.19800
H288        H  0.43834594  0.16471456  0.84396351     0.18000
H289        H  0.04970253  0.18489681  0.72605458     0.18000
F290        F  0.05122173  0.11946622  0.77689707    -0.19800
C291        C  0.51968159  0.32046773  0.84060691    -0.21200
C292        C  0.01599285  0.36266702  0.81809081    -0.09200
C293        C  0.00767495  0.36498403  0.76546324     0.29600
C294        C  0.00303595  0.33043045  0.73727727    -0.21200
C295        C  0.00426902  0.29216774  0.76057013    -0.09200
C296        C  0.51469767  0.28613280  0.81260640     0.29600
F297        F  0.52228594  0.25119524  0.83714869    -0.19800
H298        H  0.52692765  0.31682703  0.88074783     0.18000
H299        H  0.99756977  0.33356760  0.69661452     0.18000
F300        F  0.00367011  0.40053731  0.74101396    -0.19800
C301        C  0.41784190  0.22510661  0.62980759    -0.21200
C302        C  0.38640717  0.25038075  0.64214731    -0.09200
C303        C  0.39186421  0.27688560  0.68185854     0.29600
C304        C  0.42831099  0.27847652  0.70738311    -0.21200
C305        C  0.46059563  0.25347005  0.69439914    -0.09200
C306        C  0.45365370  0.22574801  0.65593436     0.29600
F307        F  0.48207428  0.19962614  0.64239617    -0.19800
H308        H  0.41468267  0.20467220  0.59903361     0.18000
H309        H  0.43044339  0.29875511  0.73846225     0.18000
F310        F  0.36249654  0.30204986  0.69504933    -0.19800
C311        C  0.07545681  0.25358256  0.71600274    -0.21200
C312        C  0.03800584  0.25660403  0.69209593    -0.09200
C313        C  0.03795407  0.26364027  0.63861360     0.29600
C314        C  0.07263708  0.26084998  0.61053777    -0.21200
C315        C  0.10938221  0.25347523  0.63412581    -0.09200
C316        C  0.11043315  0.25197634  0.68777705     0.29600
F317        F  0.14503528  0.24867248  0.71315126    -0.19800
H318        H  0.07752336  0.25106995  0.75720686     0.18000
H319        H  0.07046851  0.26521203  0.56953167     0.18000
F320        F  0.00516850  0.27522773  0.61274310    -0.19800
C321        C  0.24991594  0.10358957  0.69171856    -0.21200
C322        C  0.25395976  0.10293469  0.63852613    -0.09200
C323        C  0.25822112  0.06531781  0.61610702     0.29600
C324        C  0.25345061  0.03039545  0.64446087    -0.21200
C325        C  0.25083870  0.03031918  0.69797252    -0.09200
C326        C  0.24976569  0.06814407  0.72112383     0.29600
F327        F  0.24902686  0.07099276  0.77267058    -0.19800
H328        H  0.24772461  0.13152639  0.71083130     0.18000
H329        H  0.25315730  0.00363003  0.62322729     0.18000
F330        F  0.26814907  0.06150173  0.56631263    -0.19800
C331        C  0.22187523  0.38785468  0.67632577    -0.21200
C332        C  0.25053399  0.38137981  0.63944945    -0.09200
C333        C  0.27993356  0.40948198  0.63379112     0.29600
C334        C  0.28012287  0.44339782  0.66378852    -0.21200
C335        C  0.24970213  0.45233753  0.69850594    -0.09200
C336        C  0.22126583  0.42229820  0.70557019     0.29600
F337        F  0.19329696  0.42436703  0.74175505    -0.19800
H338        H  0.19919256  0.36638702  0.68192977     0.18000
H339        H  0.30383878  0.46372825  0.65856308     0.18000
F340        F  0.30876634  0.40410167  0.59911832    -0.19800
C341        C  0.36221800  0.11913190  0.59289370    -0.21200
C342        C  0.38009408  0.13395407  0.54846533    -0.09200
C343        C  0.42083736  0.13506765  0.54652974     0.29600
C344        C  0.44311021  0.11754665  0.58593366    -0.21200
C345        C  0.42504708  0.09824904  0.62758838    -0.09200
C346        C  0.38445517  0.10254190  0.63285899     0.29600
F347        F  0.36606385  0.08612115  0.67359293    -0.19800
H348        H  0.33087101  0.12044710  0.59674553     0.18000
H349        H  0.47420580  0.11474109  0.58047770     0.18000
F350        F  0.43900170  0.15119877  0.50543716    -0.19800
C351        C  0.10092517  0.11535764  0.52766722    -0.21200
C352        C  0.14090849  0.10847069  0.52106335    -0.09200
C353        C  0.15928462  0.07691604  0.54838248     0.29600
C354        C  0.13922306  0.05619564  0.58616070    -0.21200
C355        C  0.09964277  0.06451403  0.59473165    -0.09200
C356        C  0.08023511  0.09278706  0.56265867     0.29600
F357        F  0.04094996  0.09764719  0.56348198    -0.19800
H358        H  0.08563317  0.13853239  0.50601343     0.18000
H359        H  0.15431966  0.03284810  0.60769967     0.18000
F360        F  0.19678102  0.06637948  0.53923016    -0.19800
C361        C  0.10004274  0.43637069  0.43558610    -0.21200
C362        C  0.06386756  0.42993569  0.45801856    -0.09200
C363        C  0.05123899  0.39141316  0.46781406     0.29600
C364        C  0.07744021  0.35986603  0.46294653    -0.21200
C365        C  0.11598573  0.36702498  0.44821511    -0.09200
C366        C  0.12615962  0.40498987  0.43042459     0.29600
F367        F  0.16250522  0.41255436  0.41283311    -0.19800
H368        H  0.10968905  0.46613681  0.42775414     0.18000
H369        H  0.06878690  0.33072629  0.47569443     0.18000
F370        F  0.01578148  0.38502865  0.48904116    -0.19800
C371        C  0.34614486  0.42086792  0.44574766    -0.21200
C372        C  0.36342100  0.38530311  0.46479393    -0.09200
C373        C  0.40106984  0.38533880  0.48584956     0.29600
C374        C  0.41966693  0.42092328  0.49131240    -0.21200
C375        C  0.40101140  0.45652091  0.47583505    -0.09200
C376        C  0.36462630  0.45650788  0.45192173     0.29600
F377        F  0.34632261  0.49078719  0.43710427    -0.19800
H378        H  0.31729721  0.42135223  0.42857782     0.18000
H379        H  0.44789785  0.42108356  0.51017787     0.18000
F380        F  0.41853406  0.35179823  0.50485912    -0.19800
C381        C  0.08510601  0.27359797  0.32007507    -0.21200
C382        C  0.11503679  0.24594264  0.30972937    -0.09200
C383        C  0.10850759  0.21893640  0.27095865     0.29600
C384        C  0.07235630  0.21877279  0.24467224    -0.21200
C385        C  0.04113489  0.24551681  0.25620723    -0.09200
C386        C  0.04936813  0.27409815  0.29331826     0.29600
F387        F  0.02237484  0.30233306  0.30472271    -0.19800
H388        H  0.08928340  0.29486720  0.34981549     0.18000
H389        H  0.06976674  0.19805200  0.21418277     0.18000
F390        F  0.13673314  0.19208102  0.25910628    -0.19800
C391        C  0.42760166  0.23071346  0.33896994    -0.21200
C392        C  0.39110793  0.24110151  0.31640026    -0.09200
C393        C  0.39060798  0.24935346  0.26352538     0.29600
C394        C  0.42569956  0.24895027  0.23538078    -0.21200
C395        C  0.46285203  0.24164247  0.25875169    -0.09200
C396        C  0.46250315  0.23034044  0.31110235     0.29600
F397        F  0.49520296  0.21695591  0.33579828    -0.19800
H398        H  0.42940101  0.22231426  0.37905511     0.18000
H399        H  0.42401643  0.25547776  0.19485375     0.18000
F400        F  0.35654006  0.25869124  0.23901606    -0.19800
C401        C  0.24361610  0.45918994  0.31232805    -0.21200
C402        C  0.24522136  0.45913653  0.25888546    -0.09200
C403        C  0.24126651  0.42204881  0.23516244     0.29600
C404        C  0.24024919  0.38642704  0.26379486    -0.21200
C405        C  0.24205583  0.38663699  0.31718997    -0.09200
C406        C  0.24286841  0.42402176  0.34095186     0.29600
F407        F  0.24370659  0.42737212  0.39250925    -0.19800
H408        H  0.24306186  0.48636740  0.33297176     0.18000
H409        H  0.23860476  0.35874806  0.24417227     0.18000
F410        F  0.24012967  0.42039395  0.18370456    -0.19800
C411        C  0.28735232  0.07638851  0.32222475    -0.21200
C412        C  0.26221208  0.10908453  0.31282639    -0.09200
C413        C  0.23570943  0.10737008  0.27200388     0.29600
C414        C  0.23243249  0.07271710  0.24402164    -0.21200
C415        C  0.25529008  0.03810502  0.25580971    -0.09200
C416        C  0.28506352  0.04216584  0.29307360     0.29600
F417        F  0.31145475  0.01254509  0.30267574    -0.19800
H418        H  0.30893035  0.07728032  0.35256765     0.18000
H419        H  0.21174342  0.07373044  0.21272087     0.18000
F420        F  0.21164797  0.13863350  0.26038665    -0.19800
O421        O  0.25606230  0.67828415  0.32972338    -0.86400
O422        O  0.24936802  0.67509792  0.62205810    -0.86500
O423        O  0.32108566  0.64018707  0.49873954    -0.88200
O424        O  0.19846919  0.63045033  0.48676566    -0.87000
O425        O  0.14763320  0.67496479  0.48998764    -0.86600
O426        O  0.36534461  0.68994880  0.49435839    -0.87900
O427        O  0.25421090  0.63290553  0.55514378    -0.86400
O428        O  0.26387747  0.63283570  0.39565815    -0.86000
Zr429      Zr  0.25719232  0.66778368  0.47520606     2.84300
O430        O  0.21473711  0.70377124  0.52696022    -1.08000
O431        O  0.29462113  0.70815792  0.42239268    -1.08700
C432        C  0.26094624  0.64232905  0.34779268     1.06700
C433        C  0.25179221  0.63973982  0.60296298     1.06700
C434        C  0.35476129  0.65507161  0.50773389     1.09700
C435        C  0.16283864  0.64009996  0.49658500     1.07400
H436        H  0.30571495  0.69482117  0.55368202     0.33000
O437        O  0.28959698  0.70976128  0.52975272    -1.28900
H438        H  0.19992213  0.68554250  0.40012728     0.32700
O439        O  0.21494447  0.70350552  0.42019626    -1.30600
O440        O  0.24640891  0.81131934  0.62234244    -0.86400
O441        O  0.24913429  0.81486490  0.32876314    -0.87900
O442        O  0.36046610  0.75163813  0.55862780    -0.86400
O443        O  0.13697690  0.74590091  0.55193897    -0.86500
O444        O  0.14071739  0.73918394  0.39064785    -0.86200
O445        O  0.36342591  0.74514416  0.39802052    -0.86000
O446        O  0.30203512  0.85794424  0.47408698    -0.86400
O447        O  0.18032757  0.85036210  0.46515662    -0.85800
O448        O  0.35481396  0.81570795  0.47417037    -0.86900
O449        O  0.13601547  0.80118887  0.45958758    -0.86100
O450        O  0.31541979  0.74707567  0.62344726    -0.86500
O451        O  0.32066549  0.74435746  0.33027542    -0.86200
O452        O  0.18610218  0.74474086  0.32635758    -0.85800
O453        O  0.17979473  0.74672037  0.61973291    -0.86200
O454        O  0.24519152  0.85684727  0.55604535    -0.86500
O455        O  0.24257057  0.85614204  0.39629067    -0.87900
Zr456      Zr  0.24792090  0.74438591  0.58420129     2.83100
Zr457      Zr  0.25265092  0.74559237  0.36687857     2.83500
Zr458      Zr  0.32774413  0.74986858  0.47729677     2.84100
Zr459      Zr  0.17304370  0.74012851  0.47285706     2.83400
Zr460      Zr  0.24419459  0.82105689  0.47608367     2.84200
O461        O  0.21059617  0.78081974  0.42121949    -1.08400
O462        O  0.28575786  0.78535242  0.53064952    -1.08000
C463        C  0.24638344  0.84740013  0.60410147     1.06700
C464        C  0.24535624  0.84995449  0.34840730     1.09300
C465        C  0.35113104  0.74930917  0.60607721     1.06900
C466        C  0.14454810  0.74803467  0.60014280     1.07200
C467        C  0.15038108  0.74262371  0.34329818     1.06800
C468        C  0.35596616  0.74354774  0.34979262     1.06400
C469        C  0.33872401  0.85042955  0.47290183     1.06800
C470        C  0.14573054  0.83768322  0.45758928     1.06300
H471        H  0.30242485  0.80465507  0.40222696     0.33000
O472        O  0.28692161  0.78676842  0.42248664    -1.29500
H473        H  0.18876401  0.79855420  0.54659268     0.33000
O474        O  0.20642481  0.78154951  0.52814124    -1.30900
N475        N  0.48687299  0.99252605  0.49422919    -0.36500
N476        N  0.44038442  0.52877494  0.56290636    -0.57100
N477        N  0.50852099  0.53101134  0.64768554    -0.36500
N478        N  0.05057665  0.50255885  0.56025845    -0.57100
C479        C  0.45282033  0.99892899  0.46989020     0.27100
C480        C  0.00863802  0.97852868  0.47180757     0.27100
C481        C  0.48235909  0.55976834  0.65924706     0.27100
C482        C  0.04339651  0.55197072  0.65800122     0.27100
C483        C  0.41392914  0.00592477  0.54670756     0.35700
C484        C  0.43082654  0.52936715  0.61255735     0.35700
C485        C  0.06122942  0.97013834  0.53474979     0.35700
C486        C  0.07067600  0.50220353  0.60420645     0.35700
C487        C  0.45786460  0.99230019  0.41814619    -0.21800
C488        C  0.99102742  0.97660915  0.42424552    -0.21800
C489        C  0.50162911  0.59185887  0.67800555    -0.21800
C490        C  0.04049283  0.58975685  0.67686634    -0.21800
C491        C  0.38541611  0.99486096  0.58126331    -0.22800
C492        C  0.39691250  0.50869207  0.62063066    -0.22800
C493        C  0.09264537  0.95101549  0.55891059    -0.22800
C494        C  0.09703144  0.47070095  0.60580236    -0.22800
C495        C  0.41797396  0.99324276  0.49626333    -0.18200
C496        C  0.04466942  0.96176998  0.48685874    -0.18200
C497        C  0.07517933  0.53750361  0.62916209    -0.18200
C498        C  0.44324848  0.56034441  0.64219261    -0.18200
H499        H  0.43506666  0.99104351  0.38946226     0.14700
H500        H  0.00354602  0.96465928  0.38990116     0.14700
H501        H  0.48865120  0.62021217  0.68679498     0.14700
H502        H  0.06356866  0.61105483  0.67863824     0.14700
H503        H  0.35979793  0.97760787  0.57396806     0.13000
H504        H  0.38021779  0.50688303  0.65546743     0.13000
H505        H  0.10970222  0.92621047  0.54536579     0.13000
H506        H  0.11972966  0.46488526  0.63406167     0.13000
H507        H  0.48887488  0.98573788  0.53314383     0.26300
H508        H  0.50208954  0.50480826  0.62944059     0.26300
O509        O  0.50938999  0.92969192  0.83084670    -0.86400
O510        O  0.50548301  0.92866944  0.12383958    -0.86500
O511        O  0.09030098  0.90717661  0.99448021    -0.88200
O512        O  0.47201983  0.87211905  0.98249683    -0.87000
O513        O  0.41411042  0.90692228  0.98701504    -0.86600
O514        O  0.12189528  0.96584981  0.00069041    -0.87900
O515        O  0.02315873  0.89086025  0.06151109    -0.86400
O516        O  0.02813990  0.89218654  0.89734019    -0.86000
Zr517      Zr  0.52159092  0.92035662  0.97786531     2.84300
O518        O  0.47328847  0.94861433  0.02990057    -1.08000
O519        O  0.05081740  0.97202028  0.92519965    -1.08700
C520        C  0.01960669  0.89964780  0.84993738     1.06700
C521        C  0.51475854  0.89368307  0.10738144     1.06700
C522        C  0.11977691  0.92807093  0.00676161     1.09700
C523        C  0.43507649  0.87476410  0.98919374     1.07400
H524        H  0.06386454  0.95935996  0.05486238     0.33000
O525        O  0.04566162  0.97252374  0.03186786    -1.28900
H526        H  0.46155755  0.92949361  0.90426133     0.32700
O527        O  0.47413608  0.94953186  0.92369818    -1.30600
O528        O  0.49385616  0.56476462  0.11872282    -0.86400
O529        O  0.49724792  0.56489262  0.82800683    -0.87900
O530        O  0.10797078  0.02359182  0.06013983    -0.86400
O531        O  0.38927350  0.98210919  0.05506223    -0.86500
O532        O  0.39393499  0.47133932  0.89309166    -0.86200
O533        O  0.11256560  0.52329123  0.90001946    -0.86000
O534        O  0.02780797  0.62577533  0.98871832    -0.86400
O535        O  0.41287996  0.58756614  0.96058360    -0.85800
O536        O  0.08385567  0.58910946  0.00250370    -0.86900
O537        O  0.37873537  0.53029696  0.96075683    -0.86100
O538        O  0.06646301  0.00556810  0.12467456    -0.86500
O539        O  0.07224757  0.50561452  0.83420989    -0.86200
O540        O  0.43623501  0.49056962  0.82970302    -0.82800
O541        O  0.43227528  0.99216490  0.12123112    -0.86200
O542        O  0.47578710  0.60666243  0.05229906    -0.86500
O543        O  0.48183542  0.60835949  0.89132786    -0.87900
Zr544      Zr  0.49956801  0.99635545  0.08414326     2.83100
Zr545      Zr  0.50345694  0.49682075  0.86863176     2.83500
Zr546      Zr  0.07525236  0.01952829  0.97967008     2.84100
Zr547      Zr  0.42615725  0.97737671  0.97548373     2.83400
Zr548      Zr  0.48165151  0.57221532  0.97202181     2.84200
O549        O  0.45491381  0.52465334  0.92067988    -1.08400
O550        O  0.02618309  0.54698568  0.02771808    -1.08000
C551        C  0.48497625  0.59962102  0.09961750     1.06700
C552        C  0.48930979  0.60032060  0.84452305     1.09300
C553        C  0.10125940  0.01371999  0.10679337     1.06900
C554        C  0.39711911  0.98832080  0.10254934     1.07200
C555        C  0.40178389  0.48018193  0.84616695     1.06800
C556        C  0.10650310  0.51386474  0.85310678     1.06400
C557        C  0.06264046  0.62096355  0.00611341     1.06800
C558        C  0.38106323  0.56802182  0.95777158     1.06300
H559        H  0.04453295  0.56961578  0.90313211     0.33000
O560        O  0.03088082  0.54946970  0.92212721    -1.29500
H561        H  0.43255644  0.54068626  0.04495298     0.33000
O562        O  0.45262469  0.52640002  0.02685169    -1.30900
N563        N  0.28161665  0.79952471  0.14476763    -0.36500
N564        N  0.20017993  0.77379773  0.12317180    -0.57100
N565        N  0.22254696  0.70228803  0.07912392    -0.36500
N566        N  0.30113128  0.72444624  0.09476376    -0.57100
C567        C  0.26140704  0.83416249  0.13999587     0.27100
C568        C  0.31783466  0.80652867  0.12740236     0.27100
C569        C  0.18469511  0.70602705  0.06586161     0.27100
C570        C  0.24016582  0.68119712  0.04266251     0.27100
C571        C  0.19860176  0.80484919  0.15381261     0.35700
C572        C  0.16671718  0.75437863  0.12924378     0.35700
C573        C  0.33628359  0.73725830  0.10936695     0.35700
C574        C  0.30705664  0.68847063  0.07517211     0.35700
C575        C  0.28605423  0.86409682  0.12521337    -0.21800
C576        C  0.32209049  0.84684863  0.11877751    -0.21800
C577        C  0.17788333  0.68600738  0.02107172    -0.21800
C578        C  0.21319402  0.67045355  0.00620566    -0.21800
C579        C  0.16364166  0.80531923  0.18009968    -0.22800
C580        C  0.14371627  0.77256136  0.16520575    -0.22800
C581        C  0.36467488  0.70839446  0.10112650    -0.22800
C582        C  0.34606250  0.67716658  0.07999274    -0.22800
C583        C  0.22050579  0.83786225  0.14196133    -0.18200
C584        C  0.34416791  0.77749840  0.10927363    -0.18200
C585        C  0.27982091  0.67082046  0.04279938    -0.18200
C586        C  0.15631564  0.72427703  0.09647234    -0.18200
H587        H  0.27837393  0.89444208  0.11560164     0.14700
H588        H  0.34735763  0.86172379  0.10368807     0.14700
H589        H  0.15069181  0.68305299  0.00066187     0.14700
H590        H  0.21837078  0.65323623  0.97251912     0.14700
H591        H  0.15281263  0.82789776  0.20520658     0.13000
H592        H  0.11541780  0.76414551  0.17815552     0.13000
H593        H  0.39597411  0.71128501  0.10490913     0.13000
H594        H  0.36017880  0.65096369  0.06524940     0.13000
H595        H  0.27031732  0.77200940  0.15426591     0.26300
H596        H  0.23455263  0.70998912  0.11410091     0.26300
C597        C  0.00198004  0.74642690  0.22556013    -0.02400
C598        C  0.25033608  0.49743752  0.22557982    -0.02400
C599        C  0.00078393  0.75566489  0.72697934    -0.02400
C600        C  0.25163452  0.49177214  0.72999871    -0.02400
C601        C  0.21004751  0.99957242  0.14047831    -0.21200
C602        C  0.21144593  0.00154574  0.19382656    -0.09200
C603        C  0.17415704  0.50306518  0.21920170     0.29600
C604        C  0.13854100  0.50690439  0.19169223    -0.21200
C605        C  0.13832946  0.00926856  0.13848599    -0.09200
C606        C  0.17484083  0.00410983  0.11342526     0.29600
F607        F  0.17713832  0.00245172  0.06183197    -0.19800
H608        H  0.23608858  0.99393953  0.11866905     0.18000
H609        H  0.11136466  0.50950947  0.21236440     0.18000
F610        F  0.17260260  0.50360503  0.27094697    -0.19800
C611        C  0.35608961  0.96642698  0.17736189    -0.21200
C612        C  0.36227731  0.99274287  0.13660915    -0.09200
C613        C  0.33323542  0.02189521  0.12610725     0.29600
C614        C  0.29834433  0.02356951  0.15450643    -0.21200
C615        C  0.28997213  0.99520265  0.19318498    -0.09200
C616        C  0.32010546  0.46517960  0.20392969     0.29600
F617        F  0.31876185  0.43918726  0.24389375    -0.19800
H618        H  0.37648281  0.44115082  0.18335333     0.18000
H619        H  0.27743507  0.04718279  0.14583230     0.18000
F620        F  0.33907109  0.04954412  0.08888744    -0.19800
C621        C  0.48142964  0.81715478  0.20693558    -0.21200
C622        C  0.00416737  0.78703432  0.19510094    -0.09200
C623        C  0.03298731  0.79267363  0.15727573     0.29600
C624        C  0.03780741  0.82933166  0.13235913    -0.21200
C625        C  0.01408789  0.86240157  0.14360192    -0.09200
C626        C  0.48578300  0.85366211  0.18083315     0.29600
F627        F  0.46068032  0.88388113  0.19109353    -0.19800
H628        H  0.45976296  0.81607818  0.23665417     0.18000
H629        H  0.05929001  0.83133359  0.10226608     0.18000
F630        F  0.05473526  0.76162035  0.14141413    -0.19800
C631        C  0.48328426  0.67333845  0.10995089    -0.21200
C632        C  0.48716346  0.63535374  0.13267295    -0.09200
C633        C  0.99537919  0.63639782  0.18624543     0.29600
C634        C  0.99938048  0.67101563  0.21451793    -0.21200
C635        C  0.99731135  0.70927792  0.19123738    -0.09200
C636        C  0.48817458  0.70772008  0.13789215     0.29600
F637        F  0.48245857  0.74242837  0.11233192    -0.19800
H638        H  0.47675077  0.67683677  0.06958725     0.18000
H639        H  0.00500276  0.66794992  0.25515116     0.18000
F640        F  0.99921518  0.60085846  0.21082717    -0.19800
C641        C  0.18109447  0.88728529  0.02050553    -0.21200
C642        C  0.14940160  0.90867164  0.03984183    -0.09200
C643        C  0.14361946  0.90947532  0.09294545     0.29600
C644        C  0.16946663  0.88991914  0.12635620    -0.21200
C645        C  0.20036466  0.86718777  0.10750454    -0.09200
C646        C  0.20625940  0.86618385  0.05406817     0.29600
F647        F  0.23459518  0.84262702  0.03422384    -0.19800
H648        H  0.18534142  0.88560307  0.97966941     0.18000
H649        H  0.16391200  0.89055997  0.16697144     0.18000
F650        F  0.11135951  0.92699186  0.11263661    -0.19800
C651        C  0.37774890  0.83175790  0.99308083    -0.21200
C652        C  0.41626120  0.83897908  0.00727012    -0.09200
C653        C  0.43358986  0.81742774  0.04833450     0.29600
C654        C  0.41054447  0.79485695  0.08056174    -0.21200
C655        C  0.37110536  0.79105063  0.06945083    -0.09200
C656        C  0.35548622  0.80666818  0.02319033     0.29600
F657        F  0.31719878  0.80222537  0.01131563    -0.19800
H658        H  0.36417344  0.84777594  0.96119967     0.18000
H659        H  0.42256666  0.78312550  0.11600530     0.18000
F660        F  0.47151256  0.82209754  0.06108011    -0.19800
C661        C  0.34600878  0.63145614  0.94380250    -0.21200
C662        C  0.34455559  0.59118419  0.95703516    -0.09200
C663        C  0.31236361  0.57694346  0.98454739     0.29600
C664        C  0.28776832  0.60361409  0.00888747    -0.21200
C665        C  0.29456963  0.64401486  0.00386487    -0.09200
C666        C  0.32100696  0.65800768  0.96737672     0.29600
F667        F  0.32649404  0.69733293  0.96056852    -0.19800
H668        H  0.36974769  0.64282927  0.92099975     0.18000
H669        H  0.26642829  0.59275189  0.03585050     0.18000
F670        F  0.30853768  0.53782953  0.99513264    -0.19800
C671        C  0.07299042  0.69239104  0.02417134    -0.21200
C672        C  0.07770169  0.65232076  0.03798928    -0.09200
C673        C  0.09558835  0.64190330  0.08494431     0.29600
C674        C  0.11350124  0.67041163  0.11362855    -0.21200
C675        C  0.11675983  0.70868674  0.09344389    -0.09200
C676        C  0.09299781  0.72075296  0.05168012     0.29600
F677        F  0.09485111  0.75816943  0.03244267    -0.19800
H678        H  0.05736918  0.70114804  0.98954587     0.18000
H679        H  0.13108481  0.66094015  0.14637534     0.18000
F680        F  0.09817056  0.60373951  0.10143495    -0.19800
C681        C  0.32464881  0.51189282  0.74615824    -0.21200
C682        C  0.29205317  0.48826811  0.75948721    -0.09200
C683        C  0.29863179  0.95561401  0.79681658     0.29600
C684        C  0.33475556  0.95182247  0.82284393    -0.21200
C685        C  0.36689918  0.47959380  0.81075622    -0.09200
C686        C  0.36122783  0.50754692  0.77094906     0.29600
F687        F  0.39053457  0.53184516  0.75708772    -0.19800
H688        H  0.32262759  0.53382307  0.71573843     0.18000
H689        H  0.33833339  0.92862513  0.85169004     0.18000
F690        F  0.27057733  0.92898847  0.80754792    -0.19800
C691        C  0.17981558  0.50799460  0.84501190    -0.21200
C692        C  0.14284736  0.51036795  0.82078936    -0.09200
C693        C  0.14207871  0.50819811  0.76723824     0.29600
C694        C  0.17696262  0.50224057  0.73967244    -0.21200
C695        C  0.21413490  0.49746054  0.76411197    -0.09200
C696        C  0.21462981  0.50236170  0.81772976     0.29600
F697        F  0.24840934  0.50432779  0.84455908    -0.19800
H698        H  0.18214355  0.51059286  0.88604037     0.18000
H699        H  0.17497029  0.50073473  0.69847555     0.18000
F700        F  0.10781032  0.51239323  0.74125785    -0.19800
C701        C  0.46207886  0.66636311  0.81460103    -0.21200
C702        C  0.99110553  0.64087285  0.81159447    -0.09200
C703        C  0.02310992  0.64774926  0.77990764     0.29600
C704        C  0.02613986  0.68353972  0.75210926    -0.21200
C705        C  0.99940364  0.71569044  0.75886557    -0.09200
C706        C  0.46560054  0.70300195  0.78889619     0.29600
F707        F  0.43811945  0.73133568  0.79778399    -0.19800
H708        H  0.43775965  0.66228567  0.84031785     0.18000
H709        H  0.04960748  0.68500189  0.72499899     0.18000
F710        F  0.05230457  0.62026678  0.77708042    -0.19800
C711        C  0.51930959  0.82073809  0.83897274    -0.21200
C712        C  0.01749523  0.86394814  0.81685039    -0.09200
C713        C  0.00724029  0.86598912  0.76474474     0.29600
C714        C  0.00216915  0.83120484  0.73711849    -0.21200
C715        C  0.00510346  0.79306969  0.76063641    -0.09200
C716        C  0.51355064  0.78630467  0.81143506     0.29600
F717        F  0.52107803  0.75139859  0.83607982    -0.19800
H718        H  0.52736767  0.81719838  0.87886453     0.18000
H719        H  0.99514933  0.83403347  0.69682390     0.18000
F720        F  0.00180900  0.90141443  0.74032418    -0.19800
C721        C  0.41743144  0.72271359  0.62932717    -0.21200
C722        C  0.38579512  0.74795942  0.64108358    -0.09200
C723        C  0.39104875  0.77525455  0.67979532     0.29600
C724        C  0.42730524  0.77743918  0.70544864    -0.21200
C725        C  0.45984651  0.75256866  0.69314881    -0.09200
C726        C  0.45331319  0.72425625  0.65525672     0.29600
F727        F  0.48215508  0.69841881  0.64222422    -0.19800
H728        H  0.41445775  0.70181402  0.59903929     0.18000
H729        H  0.42905028  0.79815978  0.73605391     0.18000
F730        F  0.36167494  0.80087446  0.69152037    -0.19800
C731        C  0.07585804  0.75306067  0.71590744    -0.21200
C732        C  0.03828714  0.75695199  0.69254201    -0.09200
C733        C  0.03778649  0.76419373  0.63915897     0.29600
C734        C  0.07227303  0.76146456  0.61058505    -0.21200
C735        C  0.10907226  0.75309443  0.63358238    -0.09200
C736        C  0.11046701  0.75036399  0.68719544     0.29600
F737        F  0.14497809  0.74420450  0.71210020    -0.19800
H738        H  0.07824327  0.74997252  0.75703144     0.18000
H739        H  0.06990333  0.76635436  0.56968500     0.18000
F740        F  0.00466567  0.77568617  0.61395621    -0.19800
C741        C  0.24984359  0.60363172  0.68938825    -0.21200
C742        C  0.25212939  0.60276533  0.63607049    -0.09200
C743        C  0.25520488  0.56509520  0.61347028     0.29600
C744        C  0.25176849  0.53027971  0.64235852    -0.21200
C745        C  0.25118520  0.53052246  0.69595679    -0.09200
C746        C  0.25073506  0.56834818  0.71893161     0.29600
F747        F  0.25164476  0.57133045  0.77045220    -0.19800
H748        H  0.24849882  0.63162382  0.70846285     0.18000
H749        H  0.25074916  0.50333785  0.62148045     0.18000
F750        F  0.26298747  0.56109051  0.56306192    -0.19800
C751        C  0.22004342  0.88774721  0.67705796    -0.21200
C752        C  0.24860554  0.88123659  0.63995140    -0.09200
C753        C  0.27847607  0.90891222  0.63511524     0.29600
C754        C  0.27899141  0.94264429  0.66546117    -0.21200
C755        C  0.24855456  0.95187067  0.69996271    -0.09200
C756        C  0.22001369  0.92188923  0.70705294     0.29600
F757        F  0.19296054  0.92347128  0.74451170    -0.19800
H758        H  0.19726599  0.86638178  0.68263396     0.18000
H759        H  0.30313618  0.96253743  0.66083957     0.18000
F760        F  0.30769428  0.90312014  0.60114844    -0.19800
C761        C  0.36251342  0.62070564  0.59080205    -0.21200
C762        C  0.37974798  0.63411526  0.54521374    -0.09200
C763        C  0.42042238  0.63358524  0.54117493     0.29600
C764        C  0.44311952  0.61611937  0.58021893    -0.21200
C765        C  0.42539564  0.59793842  0.62293823    -0.09200
C766        C  0.38517026  0.60344317  0.62983419     0.29600
F767        F  0.36733138  0.58731931  0.67117280    -0.19800
H768        H  0.33130254  0.62322659  0.59602444     0.18000
H769        H  0.47387761  0.61177301  0.57347941     0.18000
F770        F  0.43788627  0.64753880  0.49824100    -0.19800
C771        C  0.10000458  0.61968776  0.53469812    -0.21200
C772        C  0.13902341  0.61057936  0.52381592    -0.09200
C773        C  0.15661389  0.57703611  0.54772609     0.29600
C774        C  0.13707237  0.55609287  0.58587628    -0.21200
C775        C  0.09832251  0.56596973  0.59806578    -0.09200
C776        C  0.07952760  0.59698196  0.56980675     0.29600
F777        F  0.04079161  0.60435503  0.57362987    -0.19800
H778        H  0.08509021  0.64452809  0.51592376     0.18000
H779        H  0.15165515  0.53090382  0.60426810     0.18000
F780        F  0.19254103  0.56413087  0.53403199    -0.19800
C781        C  0.09932803  0.93736795  0.43598337    -0.21200
C782        C  0.06271316  0.93055612  0.45708573    -0.09200
C783        C  0.04994614  0.89186369  0.46498178     0.29600
C784        C  0.07637567  0.86043416  0.46033865    -0.21200
C785        C  0.11527262  0.86785466  0.44740963    -0.09200
C786        C  0.12566681  0.90610226  0.43093226     0.29600
F787        F  0.16235051  0.91398297  0.41478401    -0.19800
H788        H  0.10910709  0.96725324  0.42946127     0.18000
H789        H  0.06747253  0.83108598  0.47181834     0.18000
F790        F  0.01396133  0.88509932  0.48441164    -0.19800
C791        C  0.34599475  0.92067239  0.45053674    -0.21200
C792        C  0.36278153  0.88524947  0.47068827    -0.09200
C793        C  0.39930850  0.88547584  0.49484866     0.29600
C794        C  0.41736962  0.92116361  0.50159324    -0.21200
C795        C  0.39913044  0.95656682  0.48442943    -0.09200
C796        C  0.36387361  0.95637471  0.45799531     0.29600
F797        F  0.34624593  0.99054522  0.44140124    -0.19800
H798        H  0.31800496  0.92091625  0.43111941     0.18000
H799        H  0.44497293  0.92152755  0.52202976     0.18000
F800        F  0.41608967  0.85202205  0.51516804    -0.19800
C801        C  0.08657170  0.77351526  0.31781530    -0.21200
C802        C  0.11628924  0.74570532  0.30764718    -0.09200
C803        C  0.10946602  0.71797118  0.26987270     0.29600
C804        C  0.07315095  0.71753699  0.24403703    -0.21200
C805        C  0.04203052  0.74438550  0.25570520    -0.09200
C806        C  0.05056241  0.77339567  0.29207852     0.29600
F807        F  0.02341530  0.80124313  0.30422695    -0.19800
H808        H  0.09097919  0.79514852  0.34705389     0.18000
H809        H  0.07031571  0.69649395  0.21397850     0.18000
F810        F  0.13747500  0.69065003  0.25880860    -0.19800
C811        C  0.42842519  0.73083693  0.33948507    -0.21200
C812        C  0.39190160  0.74055815  0.31647528    -0.09200
C813        C  0.39157841  0.74795557  0.26343075     0.29600
C814        C  0.42679371  0.74758280  0.23557241    -0.21200
C815        C  0.46396413  0.74125420  0.25927917    -0.09200
C816        C  0.46350401  0.73058287  0.31185912     0.29600
F817        F  0.49627313  0.71804423  0.33708912    -0.19800
H818        H  0.43011796  0.72302799  0.37975962     0.18000
H819        H  0.42515809  0.75336135  0.19493001     0.18000
F820        F  0.35754124  0.75649533  0.23843486    -0.19800
C821        C  0.24519258  0.96018190  0.31197735    -0.21200
C822        C  0.24591152  0.96049496  0.25846765    -0.09200
C823        C  0.24219760  0.92345291  0.23458402     0.29600
C824        C  0.24208099  0.88761922  0.26297262    -0.21200
C825        C  0.24460527  0.88748560  0.31635502    -0.09200
C826        C  0.24558277  0.92478782  0.34033034     0.29600
F827        F  0.24745151  0.92783276  0.39186989    -0.19800
H828        H  0.24458933  0.98722379  0.33289652     0.18000
H829        H  0.24020983  0.86003963  0.24322144     0.18000
F830        F  0.23989095  0.92211883  0.18316765    -0.19800
C831        C  0.28729835  0.57584847  0.32142812    -0.21200
C832        C  0.26180300  0.60838329  0.31218917    -0.09200
C833        C  0.23422075  0.60572389  0.27278563     0.29600
C834        C  0.23107095  0.57094284  0.24506383    -0.21200
C835        C  0.25457209  0.53666989  0.25629792    -0.09200
C836        C  0.28456527  0.54108284  0.29321741     0.29600
F837        F  0.31062405  0.51123926  0.30349693    -0.19800
H838        H  0.30925244  0.57715769  0.35125812     0.18000
H839        H  0.20975336  0.57161172  0.21451991     0.18000
F840        F  0.20866446  0.63603621  0.26271523    -0.19800
O841        O  0.75585202  0.17846877  0.33048874    -0.86400
O842        O  0.75096942  0.17864610  0.62440480    -0.86500
O843        O  0.82448438  0.14349880  0.49953299    -0.88200
O844        O  0.70214014  0.13060783  0.48645190    -0.87000
O845        O  0.65041140  0.17409074  0.48972929    -0.86600
O846        O  0.86725461  0.19457697  0.49599095    -0.87900
O847        O  0.75719250  0.13636014  0.55787409    -0.86400
O848        O  0.76561519  0.13374669  0.39688550    -0.86000
Zr849      Zr  0.75971727  0.16942111  0.47628258     2.84300
O850        O  0.71623590  0.20511379  0.52715413    -1.08000
O851        O  0.79561270  0.21026625  0.42236994    -1.08700
C852        C  0.76140609  0.14271369  0.34894203     1.06700
C853        C  0.75422267  0.14325880  0.60567363     1.06700
C854        C  0.85752735  0.15945803  0.50947563     1.09700
C855        C  0.66631010  0.13953482  0.49585332     1.07400
H856        H  0.80733503  0.19816509  0.55478917     0.33000
O857        O  0.79084270  0.21245682  0.53062185    -1.28900
H858        H  0.70175521  0.18518006  0.40165554     0.32700
O859        O  0.71638686  0.20376357  0.42122848    -1.30600
O860        O  0.74687467  0.31407007  0.62122527    -0.86400
O861        O  0.74820737  0.31544813  0.32804631    -0.87900
O862        O  0.86078945  0.25736988  0.55859458    -0.86400
O863        O  0.63720730  0.24577818  0.55185288    -0.86500
O864        O  0.64034273  0.23461880  0.39126430    -0.86200
O865        O  0.86327193  0.24879102  0.39788844    -0.86000
O866        O  0.79846580  0.36134589  0.47110055    -0.86400
O867        O  0.67824195  0.34967957  0.45783258    -0.85800
O868        O  0.85171515  0.31957808  0.47311624    -0.86900
O869        O  0.63495257  0.29945996  0.45360617    -0.86100
O870        O  0.81578830  0.25208304  0.62337229    -0.86500
O871        O  0.82042838  0.24640443  0.33026413    -0.86200
O872        O  0.68507493  0.24258597  0.32661794    -0.85800
O873        O  0.68008003  0.24817397  0.61952494    -0.86200
O874        O  0.74331203  0.35891812  0.55426756    -0.86500
O875        O  0.74229634  0.35715562  0.39519040    -0.87900
Zr876      Zr  0.74825496  0.24701533  0.58410437     2.83100
Zr877      Zr  0.75227112  0.24614034  0.36650722     2.83500
Zr878      Zr  0.82766442  0.25293048  0.47724095     2.84100
Zr879      Zr  0.67334918  0.23992066  0.47267663     2.83400
Zr880      Zr  0.74228729  0.32232987  0.47464533     2.84200
O881        O  0.70953727  0.28109731  0.42012563    -1.08400
O882        O  0.78483748  0.28819162  0.52954897    -1.08000
C883        C  0.74598619  0.34995682  0.60243398     1.06700
C884        C  0.74486755  0.35069018  0.34744519     1.09300
C885        C  0.85149453  0.25530408  0.60616090     1.06900
C886        C  0.64481000  0.24844086  0.60002757     1.07200
C887        C  0.64949552  0.23850741  0.34376267     1.06800
C888        C  0.85574459  0.24672519  0.34971855     1.06400
C889        C  0.83517317  0.35403149  0.47131158     1.06800
C890        C  0.64419998  0.33600314  0.44909987     1.06300
H891        H  0.80091459  0.30606560  0.40148293     0.33000
O892        O  0.78571523  0.28808936  0.42199676    -1.29500
H893        H  0.68738087  0.29968960  0.54571627     0.33000
O894        O  0.70540074  0.28276350  0.52772124    -1.30900
N895        N  0.98428977  0.49218235  0.50359249    -0.36500
N896        N  0.93913860  0.03161949  0.57943136    -0.57100
N897        N  0.00929037  0.03879378  0.65678917    -0.36500
N898        N  0.55299368  0.00056898  0.55168502    -0.57100
C899        C  0.95035456  0.49810901  0.47885585     0.27100
C900        C  0.51649649  0.48432550  0.45616928     0.27100
C901        C  0.98420759  0.06902205  0.66648081     0.27100
C902        C  0.54568807  0.04817886  0.65070722     0.27100
C903        C  0.91165621  0.50727160  0.55569152     0.35700
C904        C  0.93021248  0.03641602  0.62871823     0.35700
C905        C  0.56680837  0.47288601  0.52147603     0.35700
C906        C  0.57382967  0.99944171  0.59512458     0.35700
C907        C  0.95553680  0.48985703  0.42750974    -0.21800
C908        C  0.50067392  0.48423385  0.40740800    -0.21800
C909        C  0.00491700  0.10215464  0.67812808    -0.21800
C910        C  0.54289213  0.08553781  0.67110196    -0.21800
C911        C  0.88205520  0.49853902  0.58968177    -0.22800
C912        C  0.89495422  0.01885640  0.63946847    -0.22800
C913        C  0.59606010  0.45149143  0.54721570    -0.22800
C914        C  0.60155798  0.96916913  0.59351866    -0.22800
C915        C  0.91523376  0.49429557  0.50531838    -0.18200
C916        C  0.55169063  0.46623107  0.47226259    -0.18200
C917        C  0.57777157  0.03406584  0.62205408    -0.18200
C918        C  0.94426359  0.06930090  0.65300742    -0.18200
H919        H  0.93287731  0.48800989  0.39872458     0.14700
H920        H  0.51484524  0.47429770  0.37305410     0.14700
H921        H  0.99279486  0.13127014  0.68412705     0.14700
H922        H  0.56614407  0.10652869  0.67436144     0.14700
H923        H  0.85549234  0.48285706  0.58207344     0.13000
H924        H  0.87843984  0.02084173  0.67420774     0.13000
H925        H  0.61309988  0.42677675  0.53335684     0.13000
H926        H  0.62506068  0.96325244  0.62060116     0.13000
H927        H  0.98634406  0.48626805  0.54269450     0.26300
H928        H  0.00161126  0.01112528  0.64359563     0.26300
O929        O  0.01080430  0.43374088  0.83209725    -0.86400
O930        O  0.00357859  0.43367869  0.12394402    -0.86500
O931        O  0.58916233  0.40238039  0.99759210    -0.88200
O932        O  0.97183506  0.37770457  0.97978563    -0.87000
O933        O  0.91338842  0.41158656  0.98346062    -0.86600
O934        O  0.62262704  0.46024279  0.99836520    -0.87900
O935        O  0.52166705  0.38688002  0.06228718    -0.86400
O936        O  0.52605000  0.38654941  0.89880392    -0.86000
Zr937      Zr  0.02176635  0.42560994  0.97838280     2.84300
O938        O  0.97260369  0.45327907  0.02941395    -1.08000
O939        O  0.55042259  0.46668623  0.92498594    -1.08700
C940        C  0.51806789  0.39417880  0.85128598     1.06700
C941        C  0.01286467  0.39878311  0.10739590     1.06700
C942        C  0.61968249  0.42280652  0.00701646     1.09700
C943        C  0.93475073  0.37970704  0.98529670     1.07400
H944        H  0.56396010  0.45478795  0.05496703     0.33000
O945        O  0.54577384  0.46788752  0.03186817    -1.28900
H946        H  0.96253444  0.43423408  0.90383967     0.32700
O947        O  0.97479043  0.45435324  0.92346065    -1.30600
O948        O  0.99417965  0.06854502  0.11936742    -0.86400
O949        O  0.99694468  0.06914421  0.82875180    -0.87900
O950        O  0.60906902  0.51794251  0.05866381    -0.86400
O951        O  0.88814713  0.48579872  0.05255388    -0.86500
O952        O  0.89417107  0.97176471  0.89402742    -0.86200
O953        O  0.61141600  0.01858564  0.89797789    -0.86000
O954        O  0.52972859  0.11917461  0.99021304    -0.86400
O955        O  0.91065022  0.08903657  0.95759328    -0.85800
O956        O  0.58599190  0.08243836  0.00160509    -0.86900
O957        O  0.87811179  0.03078717  0.95651474    -0.86100
O958        O  0.56704340  0.50250541  0.12376006    -0.86500
O959        O  0.57085426  0.00127518  0.83234140    -0.86200
O960        O  0.93582486  0.99397416  0.83144049    -0.82800
O961        O  0.93060548  0.49582574  0.11933539    -0.86200
O962        O  0.97498918  0.11024340  0.05322458    -0.86500
O963        O  0.97945761  0.11198252  0.89189304    -0.87900
Zr964      Zr  0.99829460  0.50103467  0.08401449     2.83100
Zr965      Zr  0.00328616  0.00120571  0.86911579     2.83500
Zr966      Zr  0.57588033  0.51410005  0.97889248     2.84100
Zr967      Zr  0.92607106  0.48200353  0.97407323     2.83400
Zr968      Zr  0.97959544  0.07581374  0.97258230     2.84200
O969        O  0.95422852  0.02764219  0.92127641    -1.08400
O970        O  0.52713531  0.04186474  0.02699918    -1.08000
C971        C  0.98512071  0.10341092  0.10030824     1.06700
C972        C  0.98811701  0.10431816  0.84532945     1.09300
C973        C  0.60198813  0.50962475  0.10563241     1.06900
C974        C  0.89567491  0.49159084  0.10017752     1.07200
C975        C  0.90175392  0.98214603  0.84757590     1.06800
C976        C  0.60521214  0.00947321  0.85107000     1.06400
C977        C  0.56486911  0.11415027  0.00640460     1.06800
C978        C  0.87965990  0.06848159  0.95216913     1.06300
H979        H  0.54423630  0.06468597  0.90199841     0.33000
O980        O  0.53079016  0.04454530  0.92126024    -1.29500
H981        H  0.93099972  0.04343941  0.04544114     0.33000
O982        O  0.95136774  0.02944957  0.02749871    -1.30900
N983        N  0.78488873  0.29497964  0.13744624    -0.36500
N984        N  0.70224991  0.27065405  0.11545396    -0.57100
N985        N  0.72294568  0.20384147  0.06190216    -0.36500
N986        N  0.80198167  0.22482410  0.07566958    -0.57100
C987        C  0.76465708  0.32972899  0.13626409     0.27100
C988        C  0.82078208  0.30283246  0.11956135     0.27100
C989        C  0.68443287  0.20681579  0.05262907     0.27100
C990        C  0.73899803  0.18494732  0.02249026     0.27100
C991        C  0.70223528  0.29962747  0.14925350     0.35700
C992        C  0.66924513  0.25061514  0.12231534     0.35700
C993        C  0.83735065  0.23516353  0.09271121     0.35700
C994        C  0.80691781  0.19026578  0.05202500     0.35700
C995        C  0.78908868  0.36031275  0.12335420    -0.21800
C996        C  0.82498738  0.34345778  0.11430551    -0.21800
C997        C  0.67563315  0.18853334  0.00711922    -0.21800
C998        C  0.71042439  0.17488455  0.98781028    -0.21800
C999        C  0.66842490  0.29850323  0.17795946    -0.22800
C1000       C  0.64785215  0.26648624  0.16162683    -0.22800
C1001       C  0.86495258  0.20628091  0.08122024    -0.22800
C1002       C  0.84556253  0.17747469  0.05590695    -0.22800
C1003       C  0.72375493  0.33317832  0.13900031    -0.18200
C1004       C  0.84645614  0.27477085  0.09784110    -0.18200
C1005       C  0.77845152  0.17444596  0.01969256    -0.18200
C1006       C  0.65763736  0.22211438  0.08788672    -0.18200
H1007       H  0.78123408  0.39100365  0.11654177     0.14700
H1008       H  0.84994159  0.35905062  0.09954940     0.14700
H1009       H  0.64745285  0.18526093  0.98928415     0.14700
H1010       H  0.71418161  0.15890396  0.95280015     0.14700
H1011       H  0.65868411  0.31974978  0.20558860     0.13000
H1012       H  0.61998465  0.25722970  0.17552301     0.13000
H1013       H  0.89630482  0.20786055  0.08603465     0.13000
H1014       H  0.85893820  0.15178003  0.03887937     0.13000
H1015       H  0.77363444  0.26703181  0.14446511     0.26300
H1016       H  0.73647152  0.20946412  0.09665590     0.26300
C1017       C  0.50075388  0.24274272  0.22489410    -0.02400
C1018       C  0.75088343  0.99784325  0.22584524    -0.02400
C1019       C  0.50008369  0.25143031  0.72573042    -0.02400
C1020       C  0.75216343  0.99355493  0.73032235    -0.02400
C1021       C  0.71032417  0.49647939  0.14050323    -0.21200
C1022       C  0.71164064  0.50208577  0.19331584    -0.09200
C1023       C  0.67483093  0.00340869  0.21849516     0.29600
C1024       C  0.63939259  0.00598322  0.19048493    -0.21200
C1025       C  0.63877008  0.50611628  0.13765837    -0.09200
C1026       C  0.67514694  0.49866105  0.11328729     0.29600
F1027       F  0.67728414  0.49229307  0.06242833    -0.19800
H1028       H  0.73639085  0.48916062  0.11949031     0.18000
H1029       H  0.61208092  0.00923796  0.21070669     0.18000
F1030       F  0.67296874  0.00527887  0.27013681    -0.19800
C1031       C  0.85534686  0.46801711  0.17443090    -0.21200
C1032       C  0.86080176  0.49487796  0.13405843    -0.09200
C1033       C  0.83131096  0.52365353  0.12414552     0.29600
C1034       C  0.79689463  0.52477610  0.15334750    -0.21200
C1035       C  0.78954354  0.49624934  0.19218181    -0.09200
C1036       C  0.82144084  0.96755818  0.20552798     0.29600
F1037       F  0.82079422  0.94238683  0.24643556    -0.19800
H1038       H  0.87853078  0.94499719  0.18578826     0.18000
H1039       H  0.77544062  0.54796389  0.14506283     0.18000
F1040       F  0.83611023  0.55133423  0.08660721    -0.19800
C1041       C  0.97940220  0.32186537  0.20597626    -0.21200
C1042       C  0.50370575  0.28367820  0.19538781    -0.09200
C1043       C  0.53326552  0.28965979  0.15864900     0.29600
C1044       C  0.53800507  0.32635889  0.13383558    -0.21200
C1045       C  0.51395070  0.35923174  0.14478233    -0.09200
C1046       C  0.98307383  0.35828051  0.17952082     0.29600
F1047       F  0.95677777  0.38779447  0.18833745    -0.19800
H1048       H  0.95752770  0.32061079  0.23539182     0.18000
H1049       H  0.55980861  0.32860022  0.10416746     0.18000
F1050       F  0.55612674  0.25899921  0.14399891    -0.19800
C1051       C  0.98599370  0.17727384  0.10943272    -0.21200
C1052       C  0.98801614  0.13944894  0.13295642    -0.09200
C1053       C  0.49158335  0.13294862  0.18551309     0.29600
C1054       C  0.49613072  0.16758200  0.21363305    -0.21200
C1055       C  0.49601335  0.20578831  0.19009973    -0.09200
C1056       C  0.99021445  0.21192816  0.13709154     0.29600
F1057       F  0.98610265  0.24635268  0.11047804    -0.19800
H1058       H  0.98117092  0.18043345  0.06864498     0.18000
H1059       H  0.50026827  0.16452907  0.25454058     0.18000
F1060       F  0.49213485  0.09755048  0.21073536    -0.19800
C1061       C  0.68224545  0.38329342  0.01902552    -0.21200
C1062       C  0.65019479  0.40364118  0.03930262    -0.09200
C1063       C  0.64545210  0.40427782  0.09262342     0.29600
C1064       C  0.67210277  0.38484725  0.12520299    -0.21200
C1065       C  0.70313955  0.36282766  0.10537713    -0.09200
C1066       C  0.70834372  0.36246204  0.05175222     0.29600
F1067       F  0.73673322  0.33950748  0.03089532    -0.19800
H1068       H  0.68597243  0.38200605  0.97806729     0.18000
H1069       H  0.66706745  0.38492927  0.16597330     0.18000
F1070       F  0.61364462  0.42190535  0.11337491    -0.19800
C1071       C  0.87841529  0.33498615  0.98615857    -0.21200
C1072       C  0.91646187  0.34315297  0.00157454    -0.09200
C1073       C  0.93435813  0.32055685  0.04136768     0.29600
C1074       C  0.91215061  0.29537995  0.07125117    -0.21200
C1075       C  0.87308945  0.29039579  0.05908079    -0.09200
C1076       C  0.85712126  0.30743866  0.01383475     0.29600
F1077       F  0.81924837  0.30157736  0.00090130    -0.19800
H1078       H  0.86448048  0.35173129  0.95515333     0.18000
H1079       H  0.92423486  0.28254689  0.10613169     0.18000
F1080       F  0.97182411  0.32651716  0.05548734    -0.19800
C1081       C  0.84392169  0.12933021  0.92601193    -0.21200
C1082       C  0.84285224  0.09043823  0.94535432    -0.09200
C1083       C  0.80998273  0.07781832  0.97266716     0.29600
C1084       C  0.78429183  0.10595984  0.99176657    -0.21200
C1085       C  0.79096092  0.14591110  0.98178767    -0.09200
C1086       C  0.81771535  0.15732279  0.94428690     0.29600
F1087       F  0.82288895  0.19608706  0.93262198    -0.19800
H1088       H  0.86828711  0.13912231  0.90311393     0.18000
H1089       H  0.76275165  0.09703651  0.01963782     0.18000
F1090       F  0.80669221  0.03972932  0.98888949    -0.19800
C1091       C  0.57253934  0.18545429  0.02489138    -0.21200
C1092       C  0.58062724  0.14562669  0.03724583    -0.09200
C1093       C  0.60205696  0.13584633  0.08185147     0.29600
C1094       C  0.61987589  0.16527989  0.10903843    -0.21200
C1095       C  0.61926037  0.20394883  0.08932389    -0.09200
C1096       C  0.59221329  0.21481813  0.05070282     0.29600
F1097       F  0.59074812  0.25235885  0.03162657    -0.19800
H1098       H  0.55428847  0.19356333  0.99226173     0.18000
H1099       H  0.64007962  0.15673122  0.13952564     0.18000
F1100       F  0.60792620  0.09774679  0.09736890    -0.19800
C1101       C  0.82289964  0.01780146  0.75291966    -0.21200
C1102       C  0.79216689  0.99060138  0.76089740    -0.09200
C1103       C  0.80097618  0.45737848  0.79524995     0.29600
C1104       C  0.83758532  0.45371841  0.82006496    -0.21200
C1105       C  0.86696170  0.98226313  0.81234415    -0.09200
C1106       C  0.85921307  0.01388698  0.77824799     0.29600
F1107       F  0.88614969  0.04228094  0.77102766    -0.19800
H1108       H  0.81978149  0.04255821  0.72659138     0.18000
H1109       H  0.84218880  0.42978551  0.84766637     0.18000
F1110       F  0.77368347  0.42997949  0.80597556    -0.19800
C1111       C  0.67857005  0.00533670  0.84384586    -0.21200
C1112       C  0.64176413  0.00661062  0.81897639    -0.09200
C1113       C  0.64160700  0.00393240  0.76545617     0.29600
C1114       C  0.67707178  0.00025126  0.73844935    -0.21200
C1115       C  0.71412130  0.99736452  0.76357142    -0.09200
C1116       C  0.71382266  0.00087743  0.81730414     0.29600
F1117       F  0.74721762  0.00184163  0.84513354    -0.19800
H1118       H  0.68045659  0.00750700  0.88496102     0.18000
H1119       H  0.67566366  0.99872594  0.69721566     0.18000
F1120       F  0.60740276  0.00499046  0.73900775    -0.19800
C1121       C  0.96187485  0.17075138  0.81549050    -0.21200
C1122       C  0.48884467  0.13637967  0.81057471    -0.09200
C1123       C  0.52010708  0.14257308  0.77735948     0.29600
C1124       C  0.52334080  0.17830136  0.74923310    -0.21200
C1125       C  0.49740826  0.21094964  0.75659513    -0.09200
C1126       C  0.96591691  0.20730967  0.78979518     0.29600
F1127       F  0.93839020  0.23581075  0.79766072    -0.19800
H1128       H  0.93714609  0.16681041  0.84056075     0.18000
H1129       H  0.54648874  0.17953171  0.72160478     0.18000
F1130       F  0.54862376  0.11449353  0.77361101    -0.19800
C1131       C  0.01928791  0.32460972  0.84102683    -0.21200
C1132       C  0.51567162  0.35856737  0.81803427    -0.09200
C1133       C  0.50723574  0.36111072  0.76543532     0.29600
C1134       C  0.50213979  0.32666092  0.73720513    -0.21200
C1135       C  0.50427014  0.28832022  0.76022834    -0.09200
C1136       C  0.01375166  0.29015518  0.81333548     0.29600
F1137       F  0.01975737  0.25526980  0.83871471    -0.19800
H1138       H  0.02605859  0.32110973  0.88132554     0.18000
H1139       H  0.49604587  0.32993339  0.69671379     0.18000
F1140       F  0.50388383  0.39674973  0.74102082    -0.19800
C1141       C  0.91631179  0.22665112  0.63288267    -0.21200
C1142       C  0.88619550  0.25439896  0.64157429    -0.09200
C1143       C  0.89322701  0.28364241  0.67745915     0.29600
C1144       C  0.92936335  0.28457968  0.70394554    -0.21200
C1145       C  0.96043076  0.25702230  0.69458057    -0.09200
C1146       C  0.95220195  0.22736141  0.65903908     0.29600
F1147       F  0.97962488  0.19947190  0.64810929    -0.19800
H1148       H  0.91218201  0.20444663  0.60459274     0.18000
H1149       H  0.93210238  0.30672859  0.73262841     0.18000
F1150       F  0.86582601  0.31222552  0.68566634    -0.19800
C1151       C  0.57533057  0.24728767  0.71530298    -0.21200
C1152       C  0.53800214  0.25316757  0.69187210    -0.09200
C1153       C  0.53818634  0.26439946  0.63943280     0.29600
C1154       C  0.57285457  0.26302464  0.61106096    -0.21200
C1155       C  0.60930613  0.25263873  0.63361048    -0.09200
C1156       C  0.61023149  0.24652213  0.68687892     0.29600
F1157       F  0.64460643  0.23911954  0.71161134    -0.19800
H1158       H  0.57731634  0.24181106  0.75611905     0.18000
H1159       H  0.57099782  0.27076581  0.57076969     0.18000
F1160       F  0.50565238  0.27887547  0.61531027    -0.19800
C1161       C  0.74891151  0.10640432  0.69183537    -0.21200
C1162       C  0.75450177  0.10619639  0.63885955    -0.09200
C1163       C  0.75936427  0.06881112  0.61606089     0.29600
C1164       C  0.75463937  0.03365471  0.64379263    -0.21200
C1165       C  0.75118769  0.03302456  0.69719148    -0.09200
C1166       C  0.74831954  0.07069662  0.72074447     0.29600
F1167       F  0.74556040  0.07318296  0.77221153    -0.19800
H1168       H  0.74567496  0.13417152  0.71115597     0.18000
H1169       H  0.75467799  0.00720554  0.62199162     0.18000
F1170       F  0.76952640  0.06541476  0.56629897    -0.19800
C1171       C  0.72345867  0.38815021  0.67920849    -0.21200
C1172       C  0.74891799  0.38396850  0.63796127    -0.09200
C1173       C  0.77690574  0.41332008  0.63004626     0.29600
C1174       C  0.77844080  0.44635873  0.66166600    -0.21200
C1175       C  0.75005046  0.45359519  0.69965513    -0.09200
C1176       C  0.72392976  0.42189566  0.70979321     0.29600
F1177       F  0.70006817  0.42151250  0.75089995    -0.19800
H1178       H  0.70259440  0.36531771  0.68751420     0.18000
H1179       H  0.80125967  0.46748968  0.65497541     0.18000
F1180       F  0.80332532  0.40981814  0.59191255    -0.19800
C1181       C  0.86402288  0.12714974  0.59393592    -0.21200
C1182       C  0.88213805  0.13965475  0.54853587    -0.09200
C1183       C  0.92292773  0.13981290  0.54646088     0.29600
C1184       C  0.94478890  0.12268260  0.58660681    -0.21200
C1185       C  0.92629053  0.10574084  0.62965628    -0.09200
C1186       C  0.88589633  0.11158736  0.63482559     0.29600
F1187       F  0.86718623  0.09774120  0.67686701    -0.19800
H1188       H  0.83272133  0.12957892  0.59788822     0.18000
H1189       H  0.97580430  0.11907716  0.58150090     0.18000
F1190       F  0.94145108  0.15509520  0.50509160    -0.19800
C1191       C  0.60342162  0.11783734  0.53138670    -0.21200
C1192       C  0.64281411  0.10946530  0.52193463    -0.09200
C1193       C  0.66073313  0.07625704  0.54620025     0.29600
C1194       C  0.64059620  0.05441013  0.58283081    -0.21200
C1195       C  0.60130455  0.06330960  0.59317112    -0.09200
C1196       C  0.58258141  0.09449007  0.56515887     0.29600
F1197       F  0.54360821  0.10140341  0.56788062    -0.19800
H1198       H  0.58845580  0.14257653  0.51244142     0.18000
H1199       H  0.65524836  0.02943168  0.60159364     0.18000
F1200       F  0.69765706  0.06479888  0.53471805    -0.19800
C1201       C  0.60127144  0.43494413  0.41769740    -0.21200
C1202       C  0.56656519  0.43200276  0.44499902    -0.09200
C1203       C  0.55235355  0.39481062  0.45922873     0.29600
C1204       C  0.57621159  0.36142012  0.45449254    -0.21200
C1205       C  0.61392416  0.36540112  0.43508772    -0.09200
C1206       C  0.62468299  0.40140375  0.41168931     0.29600
F1207       F  0.65968556  0.40499930  0.38816234    -0.19800
H1208       H  0.61204946  0.46354343  0.40592075     0.18000
H1209       H  0.56709740  0.33375074  0.47162209     0.18000
F1210       F  0.51833955  0.39182794  0.48520130    -0.19800
C1211       C  0.84481448  0.42406298  0.44997552    -0.21200
C1212       C  0.85920659  0.38845511  0.47234222    -0.09200
C1213       C  0.89256211  0.38796287  0.50333957     0.29600
C1214       C  0.91020211  0.42309952  0.51375398    -0.21200
C1215       C  0.89471512  0.45873474  0.49340038    -0.09200
C1216       C  0.86254453  0.45936463  0.46068828     0.29600
F1217       F  0.84808463  0.49384833  0.44035529    -0.19800
H1218       H  0.81897067  0.42461952  0.42591478     0.18000
H1219       H  0.93565423  0.42282591  0.53859463     0.18000
F1220       F  0.90623931  0.35421244  0.52662958    -0.19800
C1221       C  0.58440519  0.26763172  0.31997046    -0.21200
C1222       C  0.61474846  0.24077420  0.30856813    -0.09200
C1223       C  0.60820273  0.21390465  0.26947764     0.29600
C1224       C  0.57180334  0.21359066  0.24355630    -0.21200
C1225       C  0.54043987  0.23992328  0.25593763    -0.09200
C1226       C  0.54851514  0.26789682  0.29382142     0.29600
F1227       F  0.52112131  0.29526207  0.30681024    -0.19800
H1228       H  0.58842659  0.28861473  0.35008944     0.18000
H1229       H  0.56901349  0.19310682  0.21279553     0.18000
F1230       F  0.63654796  0.18739277  0.25692787    -0.19800
C1231       C  0.92821921  0.23449451  0.33904212    -0.21200
C1232       C  0.89164098  0.24444644  0.31633142    -0.09200
C1233       C  0.89119204  0.25288019  0.26352793     0.29600
C1234       C  0.92627657  0.25260741  0.23541858    -0.21200
C1235       C  0.96350491  0.24605146  0.25893218    -0.09200
C1236       C  0.96325089  0.23483949  0.31132227     0.29600
F1237       F  0.99618406  0.22215671  0.33609195    -0.19800
H1238       H  0.92996834  0.22606694  0.37912498     0.18000
H1239       H  0.92454154  0.25906360  0.19482765     0.18000
F1240       F  0.85717788  0.26256603  0.23910984    -0.19800
C1241       C  0.74360456  0.46081820  0.31090080    -0.21200
C1242       C  0.74585486  0.46101903  0.25752527    -0.09200
C1243       C  0.74320452  0.42384473  0.23352306     0.29600
C1244       C  0.74293358  0.38809322  0.26196284    -0.21200
C1245       C  0.74419831  0.38813531  0.31537235    -0.09200
C1246       C  0.74399632  0.42552688  0.33932829     0.29600
F1247       F  0.74462618  0.42882604  0.39091043    -0.19800
H1248       H  0.74186239  0.48791443  0.33166842     0.18000
H1249       H  0.74207022  0.36045031  0.24214678     0.18000
F1250       F  0.74262987  0.42212264  0.18203018    -0.19800
C1251       C  0.78700907  0.07582074  0.32295231    -0.21200
C1252       C  0.76170759  0.10846563  0.31364842    -0.09200
C1253       C  0.73441896  0.10601265  0.27375630     0.29600
C1254       C  0.73127536  0.07124300  0.24585352    -0.21200
C1255       C  0.75471308  0.03693676  0.25705873    -0.09200
C1256       C  0.78451657  0.04127020  0.29428919     0.29600
F1257       F  0.81088463  0.01165828  0.30416930    -0.19800
H1258       H  0.80890224  0.07700313  0.35287197     0.18000
H1259       H  0.71021853  0.07196955  0.21499027     0.18000
F1260       F  0.70942598  0.13666816  0.26297286    -0.19800
O1261       O  0.75701357  0.67868683  0.33103449    -0.86400
O1262       O  0.74953867  0.67772885  0.62584189    -0.86500
O1263       O  0.82245071  0.64116440  0.50236816    -0.88200
O1264       O  0.70046148  0.63017223  0.48756648    -0.87000
O1265       O  0.64919331  0.67418395  0.49089118    -0.86600
O1266       O  0.86618698  0.69145376  0.49846999    -0.87900
O1267       O  0.75508105  0.63538000  0.55926748    -0.86400
O1268       O  0.76523265  0.63358908  0.39729104    -0.86000
Zr1269     Zr  0.75869302  0.66833370  0.47776285     2.84300
O1270       O  0.71579262  0.70449306  0.52894821    -1.08000
O1271       O  0.79567252  0.70885573  0.42465953    -1.08700
C1272       C  0.76205400  0.64291745  0.34924816     1.06700
C1273       C  0.75207775  0.64229845  0.60704706     1.06700
C1274       C  0.85575004  0.65655265  0.51209501     1.09700
C1275       C  0.66465664  0.63941845  0.49686018     1.07400
H1276       H  0.80630934  0.69660515  0.55662174     0.33000
O1277       O  0.79021007  0.71115590  0.53227130    -1.28900
H1278       H  0.70145442  0.68483629  0.40279703     0.32700
O1279       O  0.71613956  0.70322633  0.42260208    -1.30600
O1280       O  0.74887287  0.81409047  0.62126875    -0.86400
O1281       O  0.74871165  0.81363469  0.32854214    -0.87900
O1282       O  0.86103328  0.75352526  0.56159998    -0.86400
O1283       O  0.63738119  0.74674870  0.55339331    -0.86500
O1284       O  0.64032620  0.73464621  0.39330066    -0.86200
O1285       O  0.86432647  0.74742538  0.40036423    -0.86000
O1286       O  0.79938422  0.85950158  0.47398008    -0.86400
O1287       O  0.67945733  0.84956229  0.45894812    -0.85800
O1288       O  0.85268079  0.81794841  0.48003855    -0.86900
O1289       O  0.63608218  0.79956194  0.45357281    -0.86100
O1290       O  0.81556855  0.75005865  0.62601437    -0.86500
O1291       O  0.82151684  0.74522124  0.33268069    -0.86200
O1292       O  0.68557158  0.74206848  0.32911233    -0.85800
O1293       O  0.67999416  0.74920575  0.62132137    -0.86200
O1294       O  0.74534923  0.85875138  0.55409251    -0.86500
O1295       O  0.74198837  0.85511156  0.39562903    -0.87900
Zr1296     Zr  0.74817110  0.74628929  0.58585682     2.83100
Zr1297     Zr  0.75306117  0.74523503  0.36844829     2.83500
Zr1298     Zr  0.82825776  0.75109103  0.47967538     2.84100
Zr1299     Zr  0.67341911  0.73965500  0.47433751     2.83400
Zr1300     Zr  0.74310257  0.82112402  0.47575050     2.84200
O1301       O  0.71016560  0.78014789  0.42161773    -1.08400
O1302       O  0.78514151  0.78670499  0.53105952    -1.08000
C1303       C  0.74841096  0.84993216  0.60219185     1.06700
C1304       C  0.74480281  0.84874370  0.34789605     1.09300
C1305       C  0.85146859  0.75214080  0.60911079     1.06900
C1306       C  0.64479437  0.74979794  0.60155585     1.07200
C1307       C  0.64983908  0.73842327  0.34595850     1.06800
C1308       C  0.85686653  0.74549138  0.35211465     1.06400
C1309       C  0.83601618  0.85238054  0.47725754     1.06800
C1310       C  0.64544681  0.83609267  0.44940226     1.06300
H1311       H  0.80241984  0.80495557  0.40353615     0.33000
O1312       O  0.78704188  0.78694055  0.42377338    -1.29500
H1313       H  0.68798207  0.79972613  0.54699989     0.33000
O1314       O  0.70574890  0.78237904  0.52924353    -1.30900
N1315       N  0.98273036  0.99165537  0.50589917    -0.36500
N1316       N  0.93922482  0.52806245  0.57878689    -0.57100
N1317       N  0.00765012  0.53568596  0.65756007    -0.36500
N1318       N  0.55395347  0.50248708  0.55042192    -0.57100
C1319       C  0.94841465  0.99750920  0.48208730     0.27100
C1320       C  0.51326199  0.98054066  0.46002342     0.27100
C1321       C  0.98158045  0.56466512  0.66874056     0.27100
C1322       C  0.54437483  0.54653483  0.65235123     0.27100
C1323       C  0.91134735  0.00940142  0.55929655     0.35700
C1324       C  0.92862774  0.53201722  0.62769230     0.35700
C1325       C  0.56507773  0.97021563  0.52339512     0.35700
C1326       C  0.57308584  0.49969850  0.59516853     0.35700
C1327       C  0.95256045  0.98861249  0.43081125    -0.21800
C1328       C  0.49641116  0.98050028  0.41189051    -0.21800
C1329       C  0.00118681  0.59793149  0.68294420    -0.21800
C1330       C  0.54109759  0.58318893  0.67457768    -0.21800
C1331       C  0.88316181  0.00095377  0.59542380    -0.22800
C1332       C  0.89254663  0.51516345  0.63520612    -0.22800
C1333       C  0.59556515  0.94999423  0.54812648    -0.22800
C1334       C  0.60037482  0.46902718  0.59401490    -0.22800
C1335       C  0.91385503  0.99453110  0.50987874    -0.18200
C1336       C  0.54869269  0.96251493  0.47513623    -0.18200
C1337       C  0.57684015  0.53354874  0.62364823    -0.18200
C1338       C  0.94192611  0.56447385  0.65381203    -0.18200
H1339       H  0.92937827  0.98660971  0.40277500     0.14700
H1340       H  0.50940537  0.96967159  0.37721635     0.14700
H1341       H  0.98816823  0.62650375  0.69033004     0.14700
H1342       H  0.56433949  0.60394108  0.67971151     0.14700
H1343       H  0.85688542  0.98423734  0.59028810     0.13000
H1344       H  0.87458956  0.51704141  0.66869948     0.13000
H1345       H  0.61236212  0.92507006  0.53439549     0.13000
H1346       H  0.62276291  0.46200772  0.62231139     0.13000
H1347       H  0.98517586  0.98626210  0.54507761     0.26300
H1348       H  0.00088246  0.50843069  0.64227938     0.26300
O1349       O  0.01071104  0.93466948  0.83126834    -0.86400
O1350       O  0.00468878  0.93297022  0.12495726    -0.86500
O1351       O  0.59013718  0.90337128  0.99446387    -0.88200
O1352       O  0.97380319  0.87592083  0.97792151    -0.87000
O1353       O  0.91509469  0.90923915  0.98298849    -0.86600
O1354       O  0.62361754  0.96128206  0.99348187    -0.87900
O1355       O  0.52319591  0.88602885  0.06057060    -0.86400
O1356       O  0.52597022  0.88680607  0.89693603    -0.86000
Zr1357     Zr  0.02221091  0.92503347  0.97858936     2.84300
O1358       O  0.97323533  0.95213282  0.03056026    -1.08000
O1359       O  0.55028306  0.96678551  0.92352790    -1.08700
C1360       C  0.51754006  0.89445465  0.84953925     1.06700
C1361       C  0.01436878  0.89813779  0.10833890     1.06700
C1362       C  0.62069333  0.92401342  0.00277710     1.09700
C1363       C  0.93677855  0.87755660  0.98370602     1.07400
H1364       H  0.56469961  0.95462622  0.05300183     0.33000
O1365       O  0.54617586  0.96776066  0.03041354    -1.28900
H1366       H  0.96273637  0.93330205  0.90406128     0.32700
O1367       O  0.97485666  0.95337729  0.92391512    -1.30600
O1368       O  0.99380208  0.56822142  0.11940053    -0.86400
O1369       O  0.99772921  0.56975375  0.82861824    -0.87900
O1370       O  0.60940130  0.01589093  0.05752833    -0.86400
O1371       O  0.88874428  0.98393544  0.05453962    -0.86500
O1372       O  0.89458375  0.47233041  0.89287300    -0.86200
O1373       O  0.61184855  0.51764662  0.89993714    -0.86000
O1374       O  0.53008288  0.62013905  0.98912980    -0.86400
O1375       O  0.91229587  0.59117132  0.95693762    -0.85800
O1376       O  0.58607024  0.58304770  0.00110367    -0.86900
O1377       O  0.87847830  0.53376037  0.95575546    -0.86100
O1378       O  0.56757805  0.00183735  0.12328342    -0.86500
O1379       O  0.57141608  0.50132500  0.83369172    -0.86200
O1380       O  0.93657778  0.49327430  0.82995118    -0.82800
O1381       O  0.93115094  0.99514420  0.12102243    -0.86200
O1382       O  0.97564206  0.61018525  0.05313664    -0.86500
O1383       O  0.98133758  0.61265402  0.89224390    -0.87900
Zr1384     Zr  0.99848327  0.00053883  0.08493422     2.83100
Zr1385     Zr  0.00392009  0.50136247  0.86825888     2.83500
Zr1386     Zr  0.57583366  0.01418985  0.97736640     2.84100
Zr1387     Zr  0.92627968  0.98016154  0.97536157     2.83400
Zr1388     Zr  0.98075938  0.57641532  0.97219652     2.84200
O1389       O  0.95496153  0.52885992  0.92003955    -1.08400
O1390       O  0.52696819  0.54233450  0.02764425    -1.08000
C1391       C  0.98504986  0.60307411  0.10039209     1.06700
C1392       C  0.98950159  0.60498745  0.84562844     1.09300
C1393       C  0.60252384  0.00832166  0.10480176     1.06900
C1394       C  0.89626088  0.99032230  0.10208318     1.07200
C1395       C  0.90240430  0.48168805  0.84620157     1.06800
C1396       C  0.60568215  0.50911501  0.85285251     1.06400
C1397       C  0.56529728  0.61512727  0.00513055     1.06800
C1398       C  0.88082902  0.57144496  0.95134628     1.06300
H1399       H  0.54504703  0.56448418  0.90282713     0.33000
O1400       O  0.53135883  0.54450743  0.92207654    -1.29500
H1401       H  0.93133424  0.54483472  0.04457645     0.33000
O1402       O  0.95158185  0.53061968  0.02668179    -1.30900
N1403       N  0.78505035  0.79816442  0.13492762    -0.36500
N1404       N  0.70216028  0.77456454  0.11146027    -0.57100
N1405       N  0.72306652  0.70676995  0.05954275    -0.36500
N1406       N  0.80167169  0.72686086  0.07529333    -0.57100
C1407       C  0.76513373  0.83303334  0.13329030     0.27100
C1408       C  0.82072752  0.80536587  0.11597826     0.27100
C1409       C  0.68482785  0.71095072  0.04920029     0.27100
C1410       C  0.73947284  0.68879215  0.01964078     0.27100
C1411       C  0.70275836  0.80293318  0.14607546     0.35700
C1412       C  0.66966078  0.75386653  0.11934955     0.35700
C1413       C  0.83684719  0.73682097  0.09320122     0.35700
C1414       C  0.80653720  0.69215168  0.05209217     0.35700
C1415       C  0.78964986  0.86323858  0.11892940    -0.21800
C1416       C  0.82513126  0.84582127  0.10880277    -0.21800
C1417       C  0.67640925  0.69444853  0.00243474    -0.21800
C1418       C  0.71133378  0.68068084  0.98341046    -0.21800
C1419       C  0.66980321  0.80084610  0.17636878    -0.22800
C1420       C  0.64919537  0.76872492  0.16017180    -0.22800
C1421       C  0.86417061  0.70726107  0.08335723    -0.22800
C1422       C  0.84482633  0.67859310  0.05770593    -0.22800
C1423       C  0.72428953  0.83662175  0.13626298    -0.18200
C1424       C  0.84643378  0.77638415  0.09657925    -0.18200
C1425       C  0.77880376  0.67755652  0.01778671    -0.18200
C1426       C  0.65794182  0.72547226  0.08475521    -0.18200
H1427       H  0.78194958  0.89397068  0.11184876     0.14700
H1428       H  0.85000503  0.86088735  0.09291226     0.14700
H1429       H  0.64837506  0.69244861  0.98372429     0.14700
H1430       H  0.71543823  0.66583858  0.94762452     0.14700
H1431       H  0.66074312  0.82134613  0.20528608     0.13000
H1432       H  0.62207367  0.75854957  0.17552610     0.13000
H1433       H  0.89547515  0.70846000  0.08895454     0.13000
H1434       H  0.85815290  0.65265685  0.04121315     0.13000
H1435       H  0.77369850  0.77045373  0.14331850     0.26300
H1436       H  0.73598252  0.71122997  0.09505446     0.26300
C1437       C  0.50196252  0.74265453  0.22550954    -0.02400
C1438       C  0.75087199  0.49958553  0.22468210    -0.02400
C1439       C  0.49916367  0.75132945  0.72482688    -0.02400
C1440       C  0.75170356  0.49275895  0.73178739    -0.02400
C1441       C  0.71109497  0.99666716  0.14055830    -0.21200
C1442       C  0.71184797  0.99987564  0.19382162    -0.09200
C1443       C  0.67499202  0.50773532  0.21829800     0.29600
C1444       C  0.63932569  0.50989211  0.19080194    -0.21200
C1445       C  0.63936303  0.00502653  0.13699901    -0.09200
C1446       C  0.67617455  0.99985232  0.11274890     0.29600
F1447       F  0.67909176  0.99686525  0.06133294    -0.19800
H1448       H  0.73742784  0.99084996  0.11941122     0.18000
H1449       H  0.61230710  0.51507385  0.21105672     0.18000
F1450       F  0.67373345  0.51211675  0.26963973    -0.19800
C1451       C  0.85596681  0.96690945  0.17661566    -0.21200
C1452       C  0.86143556  0.99369721  0.13614116    -0.09200
C1453       C  0.83208086  0.02265333  0.12648776     0.29600
C1454       C  0.79761158  0.02376781  0.15560575    -0.21200
C1455       C  0.78996137  0.99496240  0.19396807    -0.09200
C1456       C  0.82092079  0.46871116  0.20347661     0.29600
F1457       F  0.82025382  0.44336695  0.24418289    -0.19800
H1458       H  0.87789204  0.44605963  0.18349221     0.18000
H1459       H  0.77629330  0.04712065  0.14750955     0.18000
F1460       F  0.83709079  0.05056671  0.08932967    -0.19800
C1461       C  0.98187346  0.82114817  0.20820192    -0.21200
C1462       C  0.50471523  0.78333312  0.19539717    -0.09200
C1463       C  0.53455516  0.78917077  0.15897258     0.29600
C1464       C  0.53919440  0.82565972  0.13350300    -0.21200
C1465       C  0.51441417  0.85828746  0.14302797    -0.09200
C1466       C  0.98644905  0.85791974  0.18273763     0.29600
F1467       F  0.96262458  0.88861732  0.19520643    -0.19800
H1468       H  0.96094797  0.82007203  0.23884140     0.18000
H1469       H  0.56147160  0.82789547  0.10444402     0.18000
F1470       F  0.55782710  0.75850863  0.14535677    -0.19800
C1471       C  0.98355030  0.67658612  0.11060971    -0.21200
C1472       C  0.98751224  0.63870976  0.13344386    -0.09200
C1473       C  0.49524764  0.63296536  0.18539495     0.29600
C1474       C  0.49936428  0.66747245  0.21377700    -0.21200
C1475       C  0.49752825  0.70577890  0.19069941    -0.09200
C1476       C  0.98775543  0.71098023  0.13852826     0.29600
F1477       F  0.98090032  0.74548820  0.11305074    -0.19800
H1478       H  0.97701809  0.68002960  0.07024143     0.18000
H1479       H  0.50497175  0.66425160  0.25439336     0.18000
F1480       F  0.49943905  0.59740386  0.20980194    -0.19800
C1481       C  0.68478653  0.88788278  0.01603379    -0.21200
C1482       C  0.65104667  0.90562510  0.03549176    -0.09200
C1483       C  0.64481465  0.90513341  0.08851212     0.29600
C1484       C  0.67140113  0.88649309  0.12167487    -0.21200
C1485       C  0.70385032  0.86628196  0.10259905    -0.09200
C1486       C  0.71086129  0.86765387  0.04925392     0.29600
F1487       F  0.74108033  0.84695739  0.02884134    -0.19800
H1488       H  0.68984000  0.88794637  0.97525541     0.18000
H1489       H  0.66523742  0.88559502  0.16217203     0.18000
F1490       F  0.61178456  0.92096104  0.10835944    -0.19800
C1491       C  0.88218700  0.83090131  0.98227425    -0.21200
C1492       C  0.91909922  0.84088535  0.00006213    -0.09200
C1493       C  0.93547521  0.82101558  0.04303860     0.29600
C1494       C  0.91244590  0.79711021  0.07337041    -0.21200
C1495       C  0.87429649  0.79034546  0.05850966    -0.09200
C1496       C  0.86014051  0.80445753  0.01071548     0.29600
F1497       F  0.82304144  0.79718085  0.99555871    -0.19800
H1498       H  0.86942972  0.84578254  0.94896894     0.18000
H1499       H  0.92290921  0.78700502  0.11048503     0.18000
F1500       F  0.97178995  0.82909931  0.05968212    -0.19800
C1501       C  0.84746580  0.63406155  0.92675919    -0.21200
C1502       C  0.84466327  0.59462032  0.94366312    -0.09200
C1503       C  0.81013471  0.58204816  0.96724469     0.29600
C1504       C  0.78394198  0.61020332  0.98539321    -0.21200
C1505       C  0.79209501  0.65022126  0.97875359    -0.09200
C1506       C  0.82115690  0.66212339  0.94459679     0.29600
F1507       F  0.82838745  0.70101510  0.93655246    -0.19800
H1508       H  0.87309123  0.64399787  0.90650415     0.18000
H1509       H  0.76071627  0.60093707  0.01058852     0.18000
F1510       F  0.80507891  0.54362712  0.98077218    -0.19800
C1511       C  0.57303021  0.68687478  0.02275138    -0.21200
C1512       C  0.58161626  0.64707628  0.03500241    -0.09200
C1513       C  0.60381387  0.63768711  0.07909560     0.29600
C1514       C  0.62177188  0.66736700  0.10575608    -0.21200
C1515       C  0.62009392  0.70617127  0.08648888    -0.09200
C1516       C  0.59246193  0.71657387  0.04840642     0.29600
F1517       F  0.58988358  0.75426477  0.02995903    -0.19800
H1518       H  0.55419300  0.69477403  0.99061871     0.18000
H1519       H  0.64247682  0.65907705  0.13577115     0.18000
F1520       F  0.60997561  0.59969270  0.09487088    -0.19800
C1521       C  0.82341343  0.51556033  0.75088517    -0.21200
C1522       C  0.79211040  0.48952626  0.76132344    -0.09200
C1523       C  0.80123803  0.95775440  0.79364538     0.29600
C1524       C  0.83751570  0.95415897  0.81926956    -0.21200
C1525       C  0.86756355  0.48098248  0.81104730    -0.09200
C1526       C  0.86006873  0.51154567  0.77532693     0.29600
F1527       F  0.88759179  0.53893885  0.76573590    -0.19800
H1528       H  0.82042958  0.53942264  0.72318307     0.18000
H1529       H  0.84233581  0.92946118  0.84565059     0.18000
F1530       F  0.77454951  0.92933294  0.80208023    -0.19800
C1531       C  0.67888791  0.50474362  0.84577676    -0.21200
C1532       C  0.64210605  0.50641755  0.82090914    -0.09200
C1533       C  0.64174568  0.50440778  0.76738604     0.29600
C1534       C  0.67701279  0.50008020  0.74035867    -0.21200
C1535       C  0.71406327  0.49689200  0.76539149    -0.09200
C1536       C  0.71403508  0.50048173  0.81907662     0.29600
F1537       F  0.74752440  0.50164957  0.84667354    -0.19800
H1538       H  0.68083811  0.50665782  0.88691816     0.18000
H1539       H  0.67546248  0.49869238  0.69911772     0.18000
F1540       F  0.60755867  0.50697760  0.74094833    -0.19800
C1541       C  0.96405670  0.67211759  0.81826119    -0.21200
C1542       C  0.49007760  0.63581910  0.80929681    -0.09200
C1543       C  0.52187785  0.64307233  0.77725031     0.29600
C1544       C  0.52442756  0.67888179  0.74909239    -0.21200
C1545       C  0.49725830  0.71068156  0.75552401    -0.09200
C1546       C  0.96827781  0.70884840  0.79321217     0.29600
F1547       F  0.94178918  0.73795401  0.80301326    -0.19800
H1548       H  0.93987501  0.66841189  0.84429351     0.18000
H1549       H  0.54813597  0.68090383  0.72237616     0.18000
F1550       F  0.55158587  0.61614853  0.77489533    -0.19800
C1551       C  0.02305581  0.82608304  0.83953252    -0.21200
C1552       C  0.51474275  0.85879905  0.81638684    -0.09200
C1553       C  0.50496661  0.86118918  0.76415588     0.29600
C1554       C  0.49965096  0.82663180  0.73622961    -0.21200
C1555       C  0.50244441  0.78832043  0.75932058    -0.09200
C1556       C  0.01726639  0.79147767  0.81245606     0.29600
F1557       F  0.02582555  0.75685299  0.83726501    -0.19800
H1558       H  0.03177902  0.82281196  0.87922659     0.18000
H1559       H  0.49300682  0.82977977  0.69586237     0.18000
F1560       F  0.50054470  0.89675147  0.73977589    -0.19800
C1561       C  0.91657260  0.72405722  0.63631747    -0.21200
C1562       C  0.88603860  0.75144868  0.64482998    -0.09200
C1563       C  0.89274632  0.78109195  0.68032678     0.29600
C1564       C  0.92912032  0.78314542  0.70609419    -0.21200
C1565       C  0.96072321  0.75634182  0.69637714    -0.09200
C1566       C  0.95271806  0.72594906  0.66174795     0.29600
F1567       F  0.98050350  0.69827078  0.65129882    -0.19800
H1568       H  0.91268705  0.70129886  0.60857025     0.18000
H1569       H  0.93171033  0.80560218  0.73441067     0.18000
F1570       F  0.86478385  0.80909414  0.68867642    -0.19800
C1571       C  0.57446323  0.74959017  0.71579529    -0.21200
C1572       C  0.53726121  0.75399599  0.69157578    -0.09200
C1573       C  0.53765916  0.76469168  0.63901325     0.29600
C1574       C  0.57265176  0.76397524  0.61131764    -0.21200
C1575       C  0.60908524  0.75456421  0.63464169    -0.09200
C1576       C  0.60964546  0.74938688  0.68804155     0.29600
F1577       F  0.64389472  0.74326383  0.71355846    -0.19800
H1578       H  0.57617038  0.74462763  0.75672084     0.18000
H1579       H  0.57099497  0.77109675  0.57084390     0.18000
F1580       F  0.50495336  0.77776558  0.61403434    -0.19800
C1581       C  0.74955598  0.60554224  0.69360641    -0.21200
C1582       C  0.75166202  0.60520825  0.64015615    -0.09200
C1583       C  0.75346786  0.56770885  0.61701742     0.29600
C1584       C  0.74961603  0.53273931  0.64530847    -0.21200
C1585       C  0.75026067  0.53221245  0.69884993    -0.09200
C1586       C  0.74987222  0.56984139  0.72259407     0.29600
F1587       F  0.75079230  0.57216737  0.77422909    -0.19800
H1588       H  0.74878021  0.63334982  0.71315227     0.18000
H1589       H  0.74722709  0.50623276  0.62382025     0.18000
F1590       F  0.76066325  0.56388894  0.56649472    -0.19800
C1591       C  0.72466659  0.88895178  0.67699297    -0.21200
C1592       C  0.75140532  0.88405388  0.63742447    -0.09200
C1593       C  0.78001749  0.91298466  0.63067032     0.29600
C1594       C  0.78086168  0.94627533  0.66202945    -0.21200
C1595       C  0.75120215  0.95425012  0.69819436    -0.09200
C1596       C  0.72449757  0.92285527  0.70713650     0.29600
F1597       F  0.69946943  0.92266293  0.74697729    -0.19800
H1598       H  0.70324495  0.86647344  0.68435282     0.18000
H1599       H  0.80428832  0.96692432  0.65668735     0.18000
F1600       F  0.80760660  0.90889326  0.59404802    -0.19800
C1601       C  0.86279504  0.62632773  0.59784484    -0.21200
C1602       C  0.88008891  0.63632717  0.55084873    -0.09200
C1603       C  0.92047478  0.63257730  0.54563354     0.29600
C1604       C  0.94264919  0.61559347  0.58540648    -0.21200
C1605       C  0.92473060  0.60107469  0.63027560    -0.09200
C1606       C  0.88494955  0.60925022  0.63757453     0.29600
F1607       F  0.86683127  0.59643378  0.68059155    -0.19800
H1608       H  0.83188881  0.63127436  0.60355848     0.18000
H1609       H  0.97280832  0.60857555  0.57803600     0.18000
F1610       F  0.93792556  0.64246601  0.50090322    -0.19800
C1611       C  0.60210891  0.61899024  0.53509567    -0.21200
C1612       C  0.64080015  0.60950698  0.52290396    -0.09200
C1613       C  0.65822284  0.57520305  0.54489451     0.29600
C1614       C  0.63898266  0.55377995  0.58275900    -0.21200
C1615       C  0.60031875  0.56352602  0.59570246    -0.09200
C1616       C  0.58169584  0.59573001  0.56950658     0.29600
F1617       F  0.54311613  0.60378302  0.57431214    -0.19800
H1618       H  0.58734161  0.64455426  0.51784241     0.18000
H1619       H  0.65351443  0.52800523  0.59974635     0.18000
F1620       F  0.69350081  0.56182820  0.52920675    -0.19800
C1621       C  0.60119813  0.93531252  0.42209995    -0.21200
C1622       C  0.56517124  0.93013108  0.44562527    -0.09200
C1623       C  0.55113248  0.89194181  0.45438701     0.29600
C1624       C  0.57636003  0.85953786  0.44938876    -0.21200
C1625       C  0.61517070  0.86555139  0.43503625    -0.09200
C1626       C  0.62603682  0.90291172  0.41583425     0.29600
F1627       F  0.66214713  0.90886989  0.39642675    -0.19800
H1628       H  0.61177561  0.96469972  0.41408369     0.18000
H1629       H  0.56694067  0.83074932  0.46248426     0.18000
F1630       F  0.51531148  0.88653251  0.47499158    -0.19800
C1631       C  0.84486449  0.92248506  0.45658403    -0.21200
C1632       C  0.85929829  0.88731050  0.48015205    -0.09200
C1633       C  0.89139250  0.88789236  0.51331339     0.29600
C1634       C  0.90834889  0.92354726  0.52334882    -0.21200
C1635       C  0.89316131  0.95858553  0.50077535    -0.09200
C1636       C  0.86162779  0.95820439  0.46721916     0.29600
F1637       F  0.84718478  0.99214812  0.44534258    -0.19800
H1638       H  0.81983104  0.92236534  0.43111656     0.18000
H1639       H  0.93325696  0.92411155  0.54905495     0.18000
F1640       F  0.90472322  0.85470522  0.53826663    -0.19800
C1641       C  0.58512305  0.76803132  0.32113220    -0.21200
C1642       C  0.61539551  0.74088169  0.31042950    -0.09200
C1643       C  0.60912089  0.71388777  0.27150235     0.29600
C1644       C  0.57308813  0.71380541  0.24482283    -0.21200
C1645       C  0.54162479  0.74020427  0.25667525    -0.09200
C1646       C  0.54948319  0.76839538  0.29435235     0.29600
F1647       F  0.52209743  0.79603191  0.30648995    -0.19800
H1648       H  0.58900223  0.78914030  0.35113668     0.18000
H1649       H  0.57067339  0.69333305  0.21401346     0.18000
F1650       F  0.63729481  0.68683790  0.26013288    -0.19800
C1651       C  0.92976180  0.73508348  0.34121996    -0.21200
C1652       C  0.89282572  0.74347345  0.31851222    -0.09200
C1653       C  0.89203764  0.75049320  0.26534958     0.29600
C1654       C  0.92703550  0.75086871  0.23700281    -0.21200
C1655       C  0.96445518  0.74511312  0.26019221    -0.09200
C1656       C  0.96464623  0.73525029  0.31306589     0.29600
F1657       F  0.99790557  0.72400513  0.33816283    -0.19800
H1658       H  0.93191951  0.72787351  0.38163211     0.18000
H1659       H  0.92498105  0.75658392  0.19627046     0.18000
F1660       F  0.85767422  0.75785678  0.24060281    -0.19800
C1661       C  0.74449939  0.95877216  0.31185484    -0.21200
C1662       C  0.74621619  0.95913477  0.25845231    -0.09200
C1663       C  0.74334831  0.92205681  0.23421148     0.29600
C1664       C  0.74268515  0.88623285  0.26247484    -0.21200
C1665       C  0.74409420  0.88614859  0.31589432    -0.09200
C1666       C  0.74451882  0.92341114  0.34004908     0.29600
F1667       F  0.74555803  0.92648665  0.39165005    -0.19800
H1668       H  0.74339869  0.98578979  0.33282275     0.18000
H1669       H  0.74150577  0.85865176  0.24253434     0.18000
F1670       F  0.74266612  0.92053352  0.18267949    -0.19800
C1671       C  0.78715417  0.57597648  0.32333576    -0.21200
C1672       C  0.76291493  0.60924992  0.31323317    -0.09200
C1673       C  0.73740062  0.60825335  0.27115852     0.29600
C1674       C  0.73399362  0.57374244  0.24285569    -0.21200
C1675       C  0.75563049  0.53858348  0.25556834    -0.09200
C1676       C  0.78472311  0.54188032  0.29391166     0.29600
F1677       F  0.81013945  0.51155987  0.30443313    -0.19800
H1678       H  0.80808452  0.57628108  0.35448839     0.18000
H1679       H  0.71411706  0.57515087  0.21065106     0.18000
F1680       F  0.71436086  0.64007246  0.25854283    -0.19800
loop_ 
_geom_bond_atom_site_label_1 
_geom_bond_atom_site_label_2 
_geom_bond_distance 
_geom_bond_site_symmetry_2 
_ccdc_geom_bond_type 
O1          Zr37   2.487       .  S
O1           C12   1.302       .  A
O2          Zr36   2.532       .  S
O2           C13   1.311       .  A
O3           Zr9   2.434       .  S
O3           C14   1.291       .  A
O4           Zr9   2.406       .  S
O4           C15   1.285       .  A
O5          Zr39   2.426       .  S
O5           C15   1.290       .  A
O6          Zr38   2.422       .  S
O6           C14   1.287       .  A
O7           Zr9   2.395       .  S
O7           C13   1.284       .  A
O8           Zr9   2.433       .  S
O8           C12   1.292       .  A
Zr9          O10   2.342       .  S
Zr9          O11   2.331       .  S
Zr9          O19   2.341       .  S
Zr9          O17   2.330       .  S
O10         Zr36   2.363       .  S
O10         Zr39   2.326       .  S
O11         Zr37   2.375       .  S
O11         Zr38   2.345       .  S
C12         C412   1.493       .  S
C13         C322   1.513       .  S
C14         C342   1.466       .  S
C15         C352   1.472       .  S
H16          O17   0.962       .  S
O17         Zr36   2.341       .  S
O17         Zr38   2.335       .  S
H18          O19   0.967       .  S
O19         Zr37   2.375       .  S
O19         Zr39   2.347       .  S
O20         Zr36   2.494       .  S
O20          C43   1.303       .  A
O21         Zr37   2.525       .  S
O21          C44   1.309       .  A
O22         Zr38   2.410       .  S
O22          C45   1.288       .  A
O23         Zr39   2.420       .  S
O23          C46   1.290       .  A
O24         Zr39   2.420       .  S
O24          C47   1.289       .  A
O25         Zr38   2.422       .  S
O25          C48   1.290       .  A
O26         Zr40   2.371       .  S
O26          C49   1.279       .  A
O27         Zr40   2.393       .  S
O27          C50   1.284       .  A
O28         Zr38   2.437       .  S
O28          C49   1.290       .  A
O29         Zr39   2.422       .  S
O29          C50   1.287       .  A
O30         Zr36   2.529       .  S
O30          C45   1.310       .  A
O31         Zr37   2.522       .  S
O31          C48   1.309       .  A
O32         Zr37   2.520       .  S
O32          C47   1.309       .  A
O33         Zr36   2.523       .  S
O33          C46   1.309       .  A
O34         Zr40   2.435       .  S
O34          C43   1.291       .  A
O35         Zr40   2.374       .  S
O35          C44   1.279       .  A
Zr36         O42   2.365       .  S
Zr36         O54   2.363       .  S
Zr37         O41   2.349       .  S
Zr37         O52   2.360       .  S
Zr38         O42   2.343       .  S
Zr38         O52   2.329       .  S
Zr39         O41   2.320       .  S
Zr39         O54   2.350       .  S
Zr40         O41   2.318       .  S
Zr40         O42   2.314       .  S
Zr40         O54   2.313       .  S
Zr40         O52   2.338       .  S
C43         C332   1.496       .  S
C44         C405   1.504       .  S
C45         C302   1.498       .  S
C46         C315   1.512       .  S
C47         C382   1.498       .  S
C48         C392   1.514       .  S
C49         C372   1.458       .  S
C50         C365   1.462       .  S
H51          O52   0.966       .  S
H53          O54   0.966       .  S
N55          H87   1.042       .  S
N55          C59   1.339       .  A
N55         C900   1.341       .  A
N56          C64   1.343       .  A
N56         C483   1.339       .  A
N57          H88   1.045       .  S
N57          C61   1.354       .  A
N57         C902   1.352       .  A
N58          C66   1.338       .  A
N58         C485   1.339   1_545  A
C59          C67   1.389       .  A
C59          C75   1.399       .  A
C60         N895   1.339   1_455  A
C60          C76   1.397       .  A
C60          C68   1.383   1_455  A
C61          C69   1.380       .  A
C61          C78   1.412       .  A
C62         N897   1.352       .  A
C62          C77   1.414       .  A
C62          C70   1.387       .  A
C63         N476   1.341       .  A
C63          C75   1.408       .  A
C63          C71   1.388       .  A
C64          C78   1.390       .  A
C64          C72   1.385       .  A
C65         N478   1.339       .  A
C65          C73   1.388       .  A
C65          C76   1.408       .  A
C66          C74   1.385   1_545  A
C66          C77   1.388       .  A
C67         C908   1.384       .  A
C67          H79   1.082       .  S
C68         C907   1.384       .  A
C68          H80   1.082   1_655  S
C69         C910   1.380       .  A
C69          H81   1.080       .  S
C70         C909   1.378       .  A
C70          H82   1.083       .  S
C71         C492   1.381       .  A
C71          H83   1.082       .  S
C72         C491   1.379   1_545  A
C72          H84   1.080       .  S
C73         C494   1.383       .  A
C73          H85   1.082       .  S
C74         C493   1.382       .  A
C74          H86   1.082       .  S
C75         C375   1.456       .  S
C76         C362   1.455       .  S
C77         C355   1.486       .  S
C78         C345   1.485       .  S
O89        Zr545   2.501       .  S
O89         C940   1.306       .  A
O90        Zr124   2.502       .  S
O90         C101   1.305       .  A
O91        Zr937   2.441       .  S
O91         C102   1.291   1_556  A
O92         Zr97   2.384       .  S
O92         C103   1.280       .  A
O93        Zr127   2.450       .  S
O93         C103   1.294       .  A
O94        Zr126   2.436       .  S
O94         C102   1.288   1_556  A
O95        Zr937   2.430   1_554  S
O95         C941   1.291       .  A
O96        Zr937   2.427       .  S
O96         C100   1.292       .  A
Zr97        O931   2.443       .  S
Zr97        O935   2.435   1_556  S
Zr97        O936   2.429       .  S
Zr97         O98   2.351   1_556  S
Zr97        O107   2.342       .  S
Zr97        O939   2.336       .  S
Zr97        O945   2.309   1_556  S
O98        Zr124   2.367       .  S
O98        Zr127   2.334   1_554  S
O99        Zr126   2.345       .  S
O99        Zr937   2.334       .  S
O99       Zr1385   2.373       .  S
C100        O929   1.307       .  A
C100        C292   1.510       .  S
C101        O935   1.292       .  A
C101       C1045   1.504       .  S
C102        C222   1.466       .  S
C103        C232   1.460   1_556  S
H104        O105   0.960       .  S
O105       Zr126   2.333   1_554  S
O105       Zr937   2.304   1_554  S
O105       Zr964   2.336   1_455  S
H106        O107   0.964       .  S
O107       Zr127   2.332       .  S
O107       Zr545   2.374       .  S
O108       Zr544   2.497   1_545  S
O108        C131   1.304       .  A
O109       Zr125   2.528   1_545  S
O109        C132   1.311       .  A
O110       Zr126   2.388   1_554  S
O110        C133   1.283       .  A
O111       Zr127   2.453   1_554  S
O111        C134   1.294       .  A
O112       Zr547   2.418       .  S
O112        C135   1.289       .  A
O113       Zr546   2.424       .  S
O113        C136   1.292       .  A
O114       Zr968   2.388   1_455  S
O114        C137   1.280   1_556  A
O115       Zr128   2.415       .  S
O115        C138   1.288       .  A
O116       Zr546   2.452   1_554  S
O116        C137   1.295       .  A
O117       Zr547   2.413   1_545  S
O117        C138   1.285       .  A
O118       Zr964   2.557   1_455  S
O118        C133   1.316       .  A
O119       Zr965   2.508       .  S
O119        C136   1.307       .  A
O120       Zr125   2.530       .  S
O120        C135   1.312       .  A
O121       Zr124   2.512       .  S
O121        C134   1.307       .  A
O122       Zr128   2.431   1_554  S
O122        C131   1.292       .  A
O123       Zr128   2.413       .  S
O123        C132   1.287       .  A
Zr124       O528   2.489       .  S
Zr124       O958   2.554       .  S
Zr124       O945   2.340       .  S
Zr124      O1390   2.344       .  S
Zr124       O562   2.376       .  S
Zr125       O509   2.500       .  S
Zr125       O959   2.522   1_565  S
Zr125       O129   2.353   1_565  S
Zr125      O1359   2.375       .  S
Zr125       O527   2.375       .  S
Zr125       O980   2.374   1_565  S
Zr126       O533   2.430       .  S
Zr126       O536   2.457   1_556  S
Zr126       O550   2.316   1_556  S
Zr126       O560   2.328       .  S
Zr127       O532   2.423       .  S
Zr127       O537   2.402       .  S
Zr127       O549   2.345       .  S
Zr127       O562   2.349   1_556  S
Zr128       O954   2.388       .  S
Zr128       O129   2.320       .  S
Zr128       O142   2.329   1_556  S
Zr128       O970   2.323   1_556  S
Zr128       O980   2.348       .  S
O129       Zr547   2.343   1_545  S
O130      Zr1384   2.341   1_455  S
O130       Zr546   2.317   1_554  S
O130       Zr968   2.325   1_454  S
C131        C212   1.509       .  S
C132       C1122   1.501       .  S
C133        C185   1.516       .  S
C134        C192   1.502       .  S
C135        C265   1.507       .  S
C136        C272   1.509       .  S
C137        C252   1.464       .  S
C138        C242   1.466       .  S
H139        O140   0.966       .  S
O140       Zr965   2.372       .  S
O140       Zr546   2.334       .  S
O140       Zr968   2.349   1_455  S
H141        O142   0.966       .  S
O142       Zr544   2.375   1_545  S
O142       Zr547   2.346   1_544  S
N143        H175   1.043       .  S
N143        C148   1.347       .  A
N143        C147   1.354       .  A
N144        C151   1.338       .  A
N144        C152   1.342       .  A
N145        H176   1.042       .  S
N145        C150   1.344       .  A
N145        C149   1.341       .  A
N146        C153   1.343       .  A
N146        C154   1.345       .  A
C147        C155   1.384       .  A
C147        C163   1.407       .  A
C148        C164   1.414       .  A
C148        C156   1.392       .  A
C149        C157   1.389       .  A
C149        C166   1.405       .  A
C150        C165   1.397       .  A
C150        C158   1.385   1_554  A
C151        C163   1.390       .  A
C151        C159   1.384       .  A
C152        C166   1.398       .  A
C152        C160   1.380       .  A
C153        C161   1.386       .  A
C153        C164   1.393       .  A
C154        C162   1.387       .  A
C154        C165   1.408       .  A
C155        C156   1.371       .  A
C155        H167   1.081       .  S
C156        H168   1.083       .  S
C157        C158   1.377   1_554  A
C157        H169   1.079   1_554  S
C158        H170   1.082       .  S
C159        C160   1.379       .  A
C159        H171   1.082       .  S
C160        H172   1.072       .  S
C161        C162   1.373       .  A
C161        H173   1.083       .  S
C162        H174   1.083       .  S
C163        C225   1.487       .  S
C164        C235   1.468       .  S
C165        C245   1.467   1_554  S
C166        C255   1.465       .  S
C177        C202   1.579       .  S
C177        C215   1.577   1_455  S
C177        C385   1.581       .  S
C177       C1235   1.577   1_455  S
C178        C415   1.576   1_565  S
C178        C602   1.576   1_565  S
C178        C615   1.589       .  S
C178        C822   1.564       .  S
C179        C285   1.582   1_455  S
C179        C295   1.571       .  S
C179        C312   1.578       .  S
C179       C1145   1.585   1_455  S
C180        C262   1.582       .  S
C180        C275   1.577       .  S
C180        C325   1.577   1_565  S
C180        C755   1.591       .  S
C181        C182   1.401       .  A
C181        C186   1.399       .  A
C181        H188   1.078       .  S
C182        C603   1.432       .  A
C182        C598   1.575       .  S
C183        C184   1.416       .  A
C183        C602   1.432       .  A
C183        F190   1.357       .  S
C184        C605   1.402       .  A
C184        H189   1.083       .  S
C185        C186   1.426       .  A
C185        C604   1.402       .  A
C186        F187   1.357       .  S
C191        C192   1.397       .  A
C191        C616   1.410       .  A
C191        H618   1.084       .  S
C192        C193   1.409       .  A
C193        C194   1.412       .  A
C193        F200   1.356       .  S
C194        C195   1.416       .  A
C194        H199   1.083       .  S
C195        C616   1.437       .  A
C195        C598   1.590       .  S
C196        C611   1.409       .  A
C196        C615   1.437       .  A
C196        F197   1.355       .  S
H198        C611   1.083       .  S
C201        C206   1.412       .  A
C201       C1042   1.424       .  A
C201        H208   1.080       .  S
C202        C203   1.415       .  A
C202       C1041   1.425   1_455  A
C203        C204   1.402       .  A
C203        F210   1.351       .  S
C204        C205   1.406       .  A
C204        H209   1.084       .  S
C205        C941   1.499       .  S
C205       C1046   1.405   1_455  A
C206       C1045   1.406       .  A
C206        F207   1.357       .  S
C211        C212   1.411       .  A
C211        C216   1.403       .  A
C211        H218   1.083       .  S
C212       C1053   1.406       .  A
C213        C214   1.411       .  A
C213       C1052   1.407       .  A
C213        F220   1.357       .  S
C214        C215   1.422       .  A
C214        H219   1.083   1_655  S
C215       C1056   1.418       .  A
C216       C1055   1.418       .  A
C216        F217   1.351       .  S
C221        C222   1.396       .  A
C221        C226   1.401       .  A
C221        H228   1.083   1_554  S
C222        C223   1.407       .  A
C223        C224   1.391       .  A
C223        F230   1.356       .  S
C224        C225   1.399       .  A
C224        H229   1.083       .  S
C225        C226   1.417       .  A
C226        F227   1.357       .  S
C231        C232   1.397   1_556  A
C231        C236   1.392   1_556  A
C231        H238   1.083       .  S
C232        C233   1.410       .  A
C233        C234   1.388       .  A
C233        F240   1.353       .  S
C234        C235   1.388       .  A
C234        H239   1.079       .  S
C235        C236   1.410       .  A
C236        F237   1.358       .  S
C241        C242   1.404       .  A
C241        C246   1.389       .  A
C241        H248   1.084       .  S
C242        C243   1.407       .  A
C243        C244   1.392   1_556  A
C243        F250   1.357       .  S
C244        C245   1.398   1_554  A
C244        H249   1.084       .  S
C245        C246   1.402       .  A
C246        F247   1.358       .  S
C251        C252   1.404       .  A
C251        C256   1.400       .  A
C251        H258   1.083   1_554  S
C252        C253   1.406       .  A
C253        C254   1.387       .  A
C253        F260   1.357       .  S
C254        C255   1.398       .  A
C254        H259   1.084       .  S
C255        C256   1.406       .  A
C256        F257   1.357       .  S
C261        C262   1.426   1_545  A
C261        C266   1.408       .  A
C261        H268   1.078       .  S
C262        C683   1.418       .  A
C263        C264   1.410       .  A
C263        C682   1.416       .  A
C263        F270   1.357       .  S
C264        C685   1.413       .  A
C264        H269   1.083       .  S
C265        C266   1.401   1_565  A
C265        C684   1.413       .  A
C266        F267   1.357       .  S
C271        C272   1.411       .  A
C271        C276   1.403       .  A
C271        H278   1.083       .  S
C272        C273   1.406       .  A
C273        C274   1.412       .  A
C273        F280   1.357       .  S
C274        C275   1.426   1_545  A
C274        H279   1.083       .  S
C275        C276   1.418   1_565  A
C276        F277   1.353       .  S
C281        C286   1.408       .  A
C281       C1122   1.408       .  A
C281        H288   1.084       .  S
C282        C972   1.499       .  S
C282        C283   1.401   1_655  A
C282       C1121   1.407       .  A
C283        C284   1.411       .  A
C283        F290   1.357       .  S
C284        C285   1.424   1_455  A
C284        H289   1.077       .  S
C285       C1126   1.420       .  A
C286       C1125   1.422       .  A
C286        F287   1.357       .  S
C291        C296   1.402       .  A
C291       C1132   1.413       .  A
C291        H298   1.083       .  S
C292        C293   1.406       .  A
C292       C1131   1.413       .  A
C293        C294   1.410       .  A
C293        F300   1.357       .  S
C294        C295   1.421       .  A
C294        H299   1.083   1_455  S
C295       C1136   1.418       .  A
C296       C1135   1.416       .  A
C296        F297   1.355       .  S
C301        C302   1.406       .  A
C301        C306   1.402       .  A
C301        H308   1.081       .  S
C302        C303   1.404       .  A
C303        C304   1.415       .  A
C303        F310   1.357       .  S
C304        C305   1.427       .  A
C304        H309   1.080       .  S
C305        C306   1.415       .  A
C305       C1019   1.577       .  S
C306        F307   1.357       .  S
C311        C312   1.425       .  A
C311        C316   1.412       .  A
C311        H318   1.083       .  S
C312        C313   1.416       .  A
C313        C314   1.404       .  A
C313        F320   1.355       .  S
C314        C315   1.414       .  A
C314        H319   1.083       .  S
C315        C316   1.405       .  A
C316        F317   1.357       .  S
C321        C322   1.402       .  A
C321        C326   1.413       .  A
C321        H328   1.083       .  S
C322        C323   1.421       .  A
C323        C324   1.397       .  A
C323        F330   1.358       .  S
C324        C325   1.405       .  A
C324        H329   1.075       .  S
C325        C326   1.431       .  A
C326        F327   1.356       .  S
C331        C332   1.399       .  A
C331        C336   1.411       .  A
C331        H338   1.083       .  S
C332        C333   1.406       .  A
C333        C334   1.407       .  A
C333        F340   1.358       .  S
C334        C335   1.420       .  A
C334        H339   1.083       .  S
C335        C336   1.433       .  A
C335        C600   1.589       .  S
C336        F337   1.354       .  S
C341        C342   1.406       .  A
C341        C346   1.393       .  A
C341        H348   1.079       .  S
C342        C343   1.398       .  A
C343        C344   1.395       .  A
C343        F350   1.357       .  S
C344        C345   1.412       .  A
C344        H349   1.078       .  S
C345        C346   1.403       .  A
C346        F347   1.357       .  S
C351        C352   1.397       .  A
C351        C356   1.388       .  A
C351        H358   1.083       .  S
C352        C353   1.410       .  A
C353        C354   1.393       .  A
C353        F360   1.350       .  S
C354        C355   1.400       .  A
C354        H359   1.083       .  S
C355        C356   1.414       .  A
C356        F357   1.353       .  S
C361        C362   1.394       .  A
C361        C366   1.386       .  A
C361        H368   1.084       .  S
C362        C363   1.403       .  A
C363        C364   1.391       .  A
C363        F370   1.358       .  S
C364        C365   1.402       .  A
C364        H369   1.083       .  S
C365        C366   1.410       .  A
C366        F367   1.357       .  S
C371        C372   1.412       .  A
C371        C376   1.387       .  A
C371        H378   1.083       .  S
C372        C373   1.399       .  A
C373        C374   1.385       .  A
C373        F380   1.358       .  S
C374        C375   1.405       .  A
C374        H379   1.083       .  S
C375        C376   1.391       .  A
C376        F377   1.357       .  S
C381        C382   1.407       .  A
C381        C386   1.406       .  A
C381        H388   1.084       .  S
C382        C383   1.402       .  A
C383        C384   1.413       .  A
C383        F390   1.357       .  S
C384        C385   1.426       .  A
C384        H389   1.080       .  S
C385        C386   1.419       .  A
C386        F387   1.357       .  S
C391        C392   1.414       .  A
C391        C396   1.404       .  A
C391        H398   1.083       .  S
C392        C393   1.407       .  A
C393        C394   1.414       .  A
C393        F400   1.357       .  S
C394        C395   1.424       .  A
C394        H399   1.081       .  S
C395        C396   1.416       .  A
C395       C1017   1.577       .  S
C396        F397   1.355       .  S
C401        C402   1.401       .  A
C401        C406   1.395       .  A
C401        H408   1.079       .  S
C402        C403   1.423       .  A
C402        C598   1.562       .  S
C403        C404   1.409       .  A
C403        F410   1.351       .  S
C404        C405   1.400       .  A
C404        H409   1.082       .  S
C405        C406   1.425       .  A
C406        F407   1.358       .  S
C411        C412   1.407       .  A
C411        C416   1.406       .  A
C411        H418   1.083       .  S
C412        C413   1.401       .  A
C413        C414   1.404       .  A
C413        F420   1.358       .  S
C414        C415   1.425       .  A
C414        H419   1.080       .  S
C415        C416   1.418       .  A
C416        F417   1.356       .  S
O421       Zr457   2.501       .  S
O421        C432   1.305       .  A
O422       Zr456   2.529       .  S
O422        C433   1.310       .  A
O423       Zr429   2.433       .  S
O423        C434   1.291       .  A
O424       Zr429   2.415       .  S
O424        C435   1.286       .  A
O425       Zr459   2.424       .  S
O425        C435   1.290       .  A
O426       Zr458   2.415       .  S
O426        C434   1.286       .  A
O427       Zr429   2.386       .  S
O427        C433   1.282       .  A
O428       Zr429   2.430       .  S
O428        C432   1.290       .  A
Zr429       O430   2.338       .  S
Zr429       O431   2.332       .  S
Zr429       O439   2.338       .  S
Zr429       O437   2.331       .  S
O430       Zr456   2.360       .  S
O430       Zr459   2.323       .  S
O431       Zr457   2.369       .  S
O431       Zr458   2.343       .  S
C432        C832   1.497       .  S
C433        C742   1.508       .  S
C434        C762   1.461       .  S
C435        C772   1.478       .  S
H436        O437   0.962       .  S
O437       Zr456   2.341       .  S
O437       Zr458   2.335       .  S
H438        O439   0.967       .  S
O439       Zr457   2.379       .  S
O439       Zr459   2.352       .  S
O440       Zr456   2.499       .  S
O440        C463   1.303       .  A
O441       Zr457   2.532       .  S
O441        C464   1.311       .  A
O442       Zr458   2.404       .  S
O442        C465   1.286       .  A
O443       Zr459   2.428       .  S
O443        C466   1.291       .  A
O444       Zr459   2.417       .  S
O444        C467   1.289       .  A
O445       Zr458   2.423       .  S
O445        C468   1.290       .  A
O446       Zr460   2.364       .  S
O446        C469   1.278       .  A
O447       Zr460   2.397       .  S
O447        C470   1.284       .  A
O448       Zr458   2.434       .  S
O448        C469   1.290       .  A
O449       Zr459   2.424       .  S
O449        C470   1.288       .  A
O450       Zr456   2.528       .  S
O450        C465   1.311       .  A
O451       Zr457   2.524       .  S
O451        C468   1.309       .  A
O452       Zr457   2.509       .  S
O452        C467   1.307       .  A
O453       Zr456   2.518       .  S
O453        C466   1.308       .  A
O454       Zr460   2.444       .  S
O454        C463   1.292       .  A
O455       Zr460   2.382       .  S
O455        C464   1.280       .  A
Zr456       O462   2.363       .  S
Zr456       O474   2.363       .  S
Zr457       O461   2.358       .  S
Zr457       O472   2.363       .  S
Zr458       O462   2.345       .  S
Zr458       O472   2.326       .  S
Zr459       O461   2.323       .  S
Zr459       O474   2.347       .  S
Zr460       O461   2.319       .  S
Zr460       O462   2.316       .  S
Zr460       O474   2.310       .  S
Zr460       O472   2.344       .  S
C463        C752   1.501       .  S
C464        C825   1.509       .  S
C465        C722   1.495       .  S
C466        C735   1.511       .  S
C467        C802   1.491       .  S
C468        C812   1.516       .  S
C469        C792   1.453       .  S
C470        C785   1.466       .  S
H471        O472   0.966       .  S
H473        O474   0.966       .  S
N475        H507   1.042       .  S
N475       C1320   1.340       .  A
N475        C479   1.337       .  A
N476        C484   1.344       .  A
N477        H508   1.045       .  S
N477       C1322   1.351       .  A
N477        C481   1.352       .  A
N478        C486   1.337       .  A
C479        C487   1.390       .  A
C479        C495   1.397       .  A
C480       N1315   1.340   1_455  A
C480        C496   1.399       .  A
C480        C488   1.384   1_455  A
C481        C489   1.382       .  A
C481        C498   1.409       .  A
C482       N1317   1.353       .  A
C482        C497   1.415       .  A
C482        C490   1.385       .  A
C483        C495   1.405   1_545  A
C483        C491   1.387   1_545  A
C484        C498   1.392       .  A
C484        C492   1.383       .  A
C485        C493   1.387       .  A
C485        C496   1.410       .  A
C486        C494   1.384       .  A
C486        C497   1.387       .  A
C487       C1328   1.384       .  A
C487        H499   1.082       .  S
C488       C1327   1.384       .  A
C488        H500   1.082   1_655  S
C489       C1330   1.382       .  A
C489        H501   1.081       .  S
C490       C1329   1.380       .  A
C490        H502   1.083       .  S
C491        H503   1.082       .  S
C492        H504   1.081       .  S
C493        H505   1.082       .  S
C494        H506   1.082       .  S
C495        C795   1.451       .  S
C496        C782   1.458       .  S
C497        C775   1.492       .  S
C498        C765   1.480       .  S
O509       C1360   1.305       .  A
O510       Zr544   2.502       .  S
O510        C521   1.305       .  A
O511      Zr1357   2.429       .  S
O511        C522   1.288   1_556  A
O512       Zr517   2.382       .  S
O512        C523   1.280       .  A
O513       Zr547   2.445       .  S
O513        C523   1.294       .  A
O514       Zr546   2.449   1_564  S
O514        C522   1.291       .  A
O515      Zr1357   2.439   1_554  S
O515       C1361   1.293       .  A
O516      Zr1357   2.432       .  S
O516        C520   1.292       .  A
Zr517      O1351   2.440       .  S
Zr517      O1355   2.436   1_556  S
Zr517      O1356   2.432       .  S
Zr517       O518   2.353   1_556  S
Zr517      O1359   2.334       .  S
Zr517       O527   2.341       .  S
Zr517      O1365   2.307   1_556  S
O518       Zr544   2.365       .  S
O518       Zr547   2.332   1_554  S
O519      Zr1357   2.331       .  S
O519       Zr965   2.373   1_565  S
O519       Zr546   2.339   1_565  S
C520       O1349   1.304       .  A
C520        C712   1.507       .  S
C521       O1355   1.292       .  A
C521       C1465   1.504       .  S
C522        C642   1.466       .  S
C523        C652   1.456   1_556  S
H524        O525   0.961       .  S
O525      Zr1357   2.307   1_554  S
O525      Zr1384   2.339   1_465  S
O525       Zr546   2.328   1_564  S
H526        O527   0.965       .  S
O527       Zr547   2.335       .  S
O528        C551   1.303       .  A
O529       Zr545   2.525       .  S
O529        C552   1.310       .  A
O530       Zr546   2.389   1_554  S
O530        C553   1.283       .  A
O531       Zr547   2.451   1_554  S
O531        C554   1.294       .  A
O532        C555   1.290       .  A
O533        C556   1.293       .  A
O534      Zr1388   2.391   1_455  S
O534        C557   1.281   1_556  A
O535       Zr548   2.417       .  S
O535        C558   1.289       .  A
O536        C557   1.295       .  A
O537        C558   1.284       .  A
O538      Zr1384   2.555   1_455  S
O538        C553   1.315       .  A
O539      Zr1385   2.515       .  S
O539        C556   1.308       .  A
O540       Zr545   2.527       .  S
O540        C555   1.311       .  A
O541       Zr544   2.512       .  S
O541        C554   1.307       .  A
O542       Zr548   2.435   1_554  S
O542        C551   1.293       .  A
O543       Zr548   2.420       .  S
O543        C552   1.288       .  A
Zr544      O1378   2.551   1_565  S
Zr544      O1365   2.344       .  S
Zr544       O970   2.342   1_565  S
Zr545      O1379   2.512       .  S
Zr545       O939   2.377       .  S
Zr545       O549   2.353       .  S
Zr545      O1400   2.373       .  S
Zr548      O1374   2.392       .  S
Zr548       O549   2.321       .  S
Zr548      O1390   2.324   1_556  S
Zr548       O562   2.333   1_556  S
Zr548      O1400   2.347       .  S
O550       Zr964   2.343   1_455  S
O550      Zr1388   2.319   1_454  S
C551        C632   1.507       .  S
C552       C1542   1.501       .  S
C553        C605   1.516       .  S
C554        C612   1.501       .  S
C555        C685   1.509       .  S
C556        C692   1.514       .  S
C557        C672   1.466       .  S
C558        C662   1.463       .  S
H559        O560   0.966       .  S
O560      Zr1385   2.377       .  S
O560      Zr1388   2.349   1_455  S
H561        O562   0.966       .  S
N563        H595   1.043       .  S
N563        C568   1.348       .  A
N563        C567   1.354       .  A
N564        C571   1.338       .  A
N564        C572   1.342       .  A
N565        H596   1.043       .  S
N565        C570   1.345       .  A
N565        C569   1.343       .  A
N566        C573   1.344       .  A
N566        C574   1.346       .  A
C567        C575   1.383       .  A
C567        C583   1.405       .  A
C568        C584   1.414       .  A
C568        C576   1.391       .  A
C569        C577   1.389       .  A
C569        C586   1.406       .  A
C570        C585   1.396       .  A
C570        C578   1.384       .  A
C571        C583   1.390       .  A
C571        C579   1.385       .  A
C572        C586   1.398       .  A
C572        C580   1.380       .  A
C573        C581   1.387       .  A
C573        C584   1.396       .  A
C574        C582   1.387       .  A
C574        C585   1.408       .  A
C575        C576   1.368       .  A
C575        H587   1.081       .  S
C576        H588   1.083       .  S
C577        C578   1.372       .  A
C577        H589   1.078       .  S
C578        H590   1.082   1_554  S
C579        C580   1.377       .  A
C579        H591   1.082       .  S
C580        H592   1.071       .  S
C581        C582   1.372       .  A
C581        H593   1.083       .  S
C582        H594   1.083       .  S
C583        C645   1.485       .  S
C584        C655   1.469       .  S
C585        C665   1.466       .  S
C586        C675   1.466       .  S
C597        C622   1.579       .  S
C597        C635   1.574   1_455  S
C597        C805   1.578       .  S
C597       C1655   1.578   1_455  S
C598        C835   1.578       .  S
C599        C705   1.578   1_455  S
C599        C715   1.569       .  S
C599       C1565   1.584   1_455  S
C599        C732   1.575       .  S
C600        C682   1.582       .  S
C600        C695   1.580       .  S
C600        C745   1.571       .  S
C601        C602   1.401   1_565  A
C601        C606   1.399   1_565  A
C601        H608   1.078       .  S
C603        C604   1.415       .  A
C603        F610   1.357       .  S
C604        H609   1.083       .  S
C605        C606   1.425       .  A
C606        F607   1.357       .  S
C611        C612   1.396       .  A
C612        C613   1.410   1_565  A
C613        C614   1.412       .  A
C613        F620   1.356       .  S
C614        C615   1.416   1_545  A
C614        H619   1.083       .  S
C616        F617   1.355       .  S
C621       C1462   1.423       .  A
C621        C626   1.412       .  A
C621        H628   1.079       .  S
C622       C1461   1.423   1_455  A
C622        C623   1.416       .  A
C623        C624   1.404       .  A
C623        F630   1.352       .  S
C624        C625   1.409       .  A
C624        H629   1.084       .  S
C625       C1361   1.508       .  S
C625       C1466   1.407   1_455  A
C626       C1465   1.406       .  A
C626        F627   1.357       .  S
C631        C632   1.410       .  A
C631        C636   1.402       .  A
C631        H638   1.083       .  S
C632       C1473   1.407       .  A
C633       C1472   1.408       .  A
C633        C634   1.410       .  A
C633        F640   1.357       .  S
C634        C635   1.422       .  A
C634        H639   1.083   1_655  S
C635       C1476   1.417       .  A
C636       C1475   1.418       .  A
C636        F637   1.351       .  S
C641        C642   1.397       .  A
C641        C646   1.402       .  A
C641        H648   1.083   1_554  S
C642        C643   1.407       .  A
C643        C644   1.390       .  A
C643        F650   1.354       .  S
C644        C645   1.396       .  A
C644        H649   1.083       .  S
C645        C646   1.417       .  A
C646        F647   1.358       .  S
C651        C652   1.396   1_556  A
C651        C656   1.389   1_556  A
C651        H658   1.083       .  S
C652        C653   1.408       .  A
C653        C654   1.387       .  A
C653        F660   1.352       .  S
C654        C655   1.389       .  A
C654        H659   1.078       .  S
C655        C656   1.410       .  A
C656        F657   1.358       .  S
C661        C662   1.403       .  A
C661        C666   1.388       .  A
C661        H668   1.084       .  S
C662        C663   1.408       .  A
C663        C664   1.391   1_556  A
C663        F670   1.358       .  S
C664        C665   1.397       .  A
C664        H669   1.084       .  S
C665        C666   1.402   1_554  A
C666        F667   1.358       .  S
C671        C672   1.404       .  A
C671        C676   1.401       .  A
C671        H678   1.083   1_554  S
C672        C673   1.406       .  A
C673        C674   1.387       .  A
C673        F680   1.356       .  S
C674        C675   1.397       .  A
C674        H679   1.084       .  S
C675        C676   1.408       .  A
C676        F677   1.357       .  S
C681        C682   1.427       .  A
C681        C686   1.411       .  A
C681        H688   1.079       .  S
C683        C684   1.411       .  A
C683        F690   1.358       .  S
C684        H689   1.083       .  S
C685        C686   1.404       .  A
C686        F687   1.357       .  S
C691        C692   1.413       .  A
C691        C696   1.406       .  A
C691        H698   1.083       .  S
C692        C693   1.406       .  A
C693        C694   1.413       .  A
C693        F700   1.357       .  S
C694        C695   1.426       .  A
C694        H699   1.083       .  S
C695        C696   1.418       .  A
C696        F697   1.354       .  S
C701       C1542   1.407       .  A
C701        C706   1.408       .  A
C701        H708   1.084       .  S
C702       C1392   1.495       .  S
C702       C1541   1.408       .  A
C702        C703   1.399   1_655  A
C703        C704   1.407       .  A
C703        F710   1.357       .  S
C704        C705   1.424   1_455  A
C704        H709   1.077       .  S
C705       C1546   1.418       .  A
C706       C1545   1.421       .  A
C706        F707   1.356       .  S
C711       C1552   1.413       .  A
C711        C716   1.402       .  A
C711        H718   1.083       .  S
C712       C1551   1.412       .  A
C712        C713   1.407       .  A
C713        C714   1.410       .  A
C713        F720   1.357       .  S
C714        C715   1.421       .  A
C714        H719   1.083   1_455  S
C715       C1556   1.417       .  A
C716       C1555   1.415       .  A
C716        F717   1.355       .  S
C721        C722   1.407       .  A
C721        C726   1.403       .  A
C721        H728   1.081       .  S
C722        C723   1.401       .  A
C723        C724   1.412       .  A
C723        F730   1.357       .  S
C724        C725   1.427       .  A
C724        H729   1.080       .  S
C725        C726   1.416       .  A
C725       C1439   1.577       .  S
C726        F727   1.357       .  S
C731        C732   1.424       .  A
C731        C736   1.410       .  A
C731        H738   1.082       .  S
C732        C733   1.414       .  A
C733        C734   1.405       .  A
C733        F740   1.355       .  S
C734        C735   1.415       .  A
C734        H739   1.083       .  S
C735        C736   1.406       .  A
C736        F737   1.357       .  S
C741        C742   1.400       .  A
C741        C746   1.410       .  A
C741        H748   1.083       .  S
C742        C743   1.422       .  A
C743        C744   1.395       .  A
C743        F750   1.358       .  S
C744        C745   1.405       .  A
C744        H749   1.076       .  S
C745        C746   1.428       .  A
C746        F747   1.356       .  S
C751        C752   1.401       .  A
C751        C756   1.413       .  A
C751        H758   1.083       .  S
C752        C753   1.406       .  A
C753        C754   1.407       .  A
C753        F760   1.357       .  S
C754        C755   1.419       .  A
C754        H759   1.083       .  S
C755        C756   1.434       .  A
C756        F757   1.355       .  S
C761        C762   1.406       .  A
C761        C766   1.391       .  A
C761        H768   1.080       .  S
C762        C763   1.398       .  A
C763        C764   1.395       .  A
C763        F770   1.357       .  S
C764        C765   1.412       .  A
C764        H769   1.077       .  S
C765        C766   1.400       .  A
C766        F767   1.356       .  S
C771        C772   1.398       .  A
C771        C776   1.389       .  A
C771        H778   1.083       .  S
C772        C773   1.409       .  A
C773        C774   1.395       .  A
C773        F780   1.351       .  S
C774        C775   1.403       .  A
C774        H779   1.083       .  S
C775        C776   1.415       .  A
C776        F777   1.350       .  S
C781        C782   1.395       .  A
C781        C786   1.387       .  A
C781        H788   1.084       .  S
C782        C783   1.402       .  A
C783        C784   1.392       .  A
C783        F790   1.358       .  S
C784        C785   1.403       .  A
C784        H789   1.083       .  S
C785        C786   1.411       .  A
C786        F787   1.358       .  S
C791        C792   1.412       .  A
C791        C796   1.384       .  A
C791        H798   1.082       .  S
C792        C793   1.399       .  A
C793        C794   1.384       .  A
C793        F800   1.358       .  S
C794        C795   1.406       .  A
C794        H799   1.084       .  S
C795        C796   1.388       .  A
C796        F797   1.357       .  S
C801        C802   1.404       .  A
C801        C806   1.402       .  A
C801        H808   1.084       .  S
C802        C803   1.402       .  A
C803        C804   1.413       .  A
C803        F810   1.357       .  S
C804        C805   1.427       .  A
C804        H809   1.079       .  S
C805        C806   1.418       .  A
C806        F807   1.356       .  S
C811        C812   1.415       .  A
C811        C816   1.406       .  A
C811        H818   1.083       .  S
C812        C813   1.406       .  A
C813        C814   1.413       .  A
C813        F820   1.357       .  S
C814        C815   1.423       .  A
C814        H819   1.079       .  S
C815        C816   1.417       .  A
C815       C1437   1.579       .  S
C816        F817   1.355       .  S
C821        C822   1.402       .  A
C821        C826   1.397       .  A
C821        H828   1.078       .  S
C822        C823   1.423       .  A
C823        C824   1.410       .  A
C823        F830   1.351       .  S
C824        C825   1.400       .  A
C824        H829   1.081       .  S
C825        C826   1.425       .  A
C826        F827   1.358       .  S
C831        C832   1.409       .  A
C831        C836   1.409       .  A
C831        H838   1.083       .  S
C832        C833   1.401       .  A
C833        C834   1.404       .  A
C833        F840   1.357       .  S
C834        C835   1.425       .  A
C834        H839   1.079       .  S
C835        C836   1.419       .  A
C836        F837   1.357       .  S
O841       Zr877   2.501       .  S
O841        C852   1.305       .  A
O842       Zr876   2.526       .  S
O842        C853   1.309       .  A
O843       Zr849   2.439       .  S
O843        C854   1.292       .  A
O844       Zr849   2.405       .  S
O844        C855   1.285       .  A
O845       Zr879   2.414       .  S
O845        C855   1.288       .  A
O846       Zr878   2.416       .  S
O846        C854   1.285       .  A
O847       Zr849   2.394       .  S
O847        C853   1.283       .  A
O848       Zr849   2.436       .  S
O848        C852   1.292       .  A
Zr849       O850   2.341       .  S
Zr849       O851   2.329       .  S
Zr849       O859   2.339       .  S
Zr849       O857   2.329       .  S
O850       Zr876   2.363       .  S
O850       Zr879   2.328       .  S
O851       Zr877   2.376       .  S
O851       Zr878   2.345       .  S
C852       C1252   1.500       .  S
C853       C1162   1.512       .  S
C854       C1182   1.465       .  S
C855       C1192   1.470       .  S
H856        O857   0.962       .  S
O857       Zr876   2.344       .  S
O857       Zr878   2.331       .  S
H858        O859   0.967       .  S
O859       Zr877   2.373       .  S
O859       Zr879   2.349       .  S
O860       Zr876   2.492       .  S
O860        C883   1.302       .  A
O861       Zr877   2.537       .  S
O861        C884   1.312       .  A
O862       Zr878   2.417       .  S
O862        C885   1.289       .  A
O863       Zr879   2.432       .  S
O863        C886   1.292       .  A
O864       Zr879   2.419       .  S
O864        C887   1.290       .  A
O865       Zr878   2.422       .  S
O865        C888   1.290       .  A
O866       Zr880   2.358       .  S
O866        C889   1.277       .  A
O867       Zr880   2.399       .  S
O867        C890   1.284       .  A
O868       Zr878   2.421       .  S
O868        C889   1.288       .  A
O869       Zr879   2.428       .  S
O869        C890   1.288       .  A
O870       Zr876   2.536       .  S
O870        C885   1.312       .  A
O871       Zr877   2.525       .  S
O871        C888   1.310       .  A
O872       Zr877   2.528       .  S
O872        C887   1.310       .  A
O873       Zr876   2.518       .  S
O873        C886   1.308       .  A
O874       Zr880   2.451       .  S
O874        C883   1.294       .  A
O875       Zr880   2.370       .  S
O875        C884   1.278       .  A
Zr876       O882   2.359       .  S
Zr876       O894   2.372       .  S
Zr877       O881   2.356       .  S
Zr877       O892   2.363       .  S
Zr878       O882   2.342       .  S
Zr878       O892   2.326       .  S
Zr879       O881   2.321       .  S
Zr879       O894   2.352       .  S
Zr880       O881   2.320       .  S
Zr880       O882   2.316       .  S
Zr880       O894   2.310       .  S
Zr880       O892   2.343       .  S
C883       C1172   1.502       .  S
C884       C1245   1.507       .  S
C885       C1142   1.503       .  S
C886       C1155   1.511       .  S
C887       C1222   1.501       .  S
C888       C1232   1.515       .  S
C889       C1212   1.442       .  S
C890       C1205   1.463       .  S
H891        O892   0.966       .  S
H893        O894   0.966       .  S
N895        H927   1.041       .  S
N895        C899   1.337       .  A
N896       C1323   1.338       .  A
N896        C904   1.341       .  A
N897        H928   1.045       .  S
N897        C901   1.354   1_455  A
N898       C1325   1.342   1_545  A
N898        C906   1.339   1_545  A
C899        C907   1.392       .  A
C899        C915   1.399       .  A
C900        C916   1.400       .  A
C900        C908   1.385       .  A
C901        C909   1.379   1_655  A
C901        C918   1.411       .  A
C902        C917   1.416       .  A
C902        C910   1.387       .  A
C903       N1316   1.339       .  A
C903        C915   1.405       .  A
C903        C911   1.385       .  A
C904        C918   1.389       .  A
C904        C912   1.385       .  A
C905       N1318   1.340       .  A
C905        C913   1.388       .  A
C905        C916   1.411       .  A
C906        C914   1.386       .  A
C906        C917   1.391   1_565  A
C907        H919   1.082       .  S
C908        H920   1.082       .  S
C909        H921   1.078   1_455  S
C910        H922   1.083       .  S
C911       C1332   1.379       .  A
C911        H923   1.082       .  S
C912       C1331   1.378       .  A
C912        H924   1.077       .  S
C913       C1334   1.383       .  A
C913        H925   1.082       .  S
C914       C1333   1.384       .  A
C914        H926   1.082       .  S
C915       C1215   1.447       .  S
C916       C1202   1.461       .  S
C917       C1195   1.487       .  S
C918       C1185   1.487       .  S
O929      Zr1385   2.507       .  S
O930       Zr964   2.494   1_455  S
O930        C941   1.303       .  A
O931        C942   1.291   1_556  A
O932       Zr937   2.382   1_655  S
O932        C943   1.280       .  A
O933       Zr967   2.442       .  S
O933        C943   1.293       .  A
O934       Zr966   2.448       .  S
O934        C942   1.290   1_556  A
O936        C940   1.292       .  A
Zr937       O938   2.350   1_456  S
Zr937       O947   2.336   1_455  S
O938       Zr964   2.363       .  S
O938       Zr967   2.332   1_554  S
O939       Zr966   2.341       .  S
C940       C1132   1.508       .  S
C942       C1062   1.472       .  S
C943       C1072   1.456   1_556  S
H944        O945   0.961       .  S
O945       Zr966   2.330   1_554  S
H946        O947   0.964       .  S
O947      Zr1385   2.368   1_655  S
O947       Zr967   2.333       .  S
O948      Zr1384   2.496       .  S
O948        C971   1.304       .  A
O949       Zr965   2.518   1_655  S
O949        C972   1.309       .  A
O950       Zr966   2.380   1_554  S
O950        C973   1.282       .  A
O951       Zr967   2.443   1_554  S
O951        C974   1.292       .  A
O952      Zr1387   2.417       .  S
O952        C975   1.289       .  A
O953      Zr1386   2.420       .  S
O953        C976   1.291       .  A
O954        C977   1.281   1_556  A
O955       Zr968   2.423       .  S
O955        C978   1.290       .  A
O956      Zr1386   2.444   1_554  S
O956        C977   1.293       .  A
O957      Zr1387   2.398   1_545  S
O957        C978   1.283       .  A
O958        C973   1.315       .  A
O959        C976   1.309       .  A
O960       Zr965   2.525   1_665  S
O960        C975   1.311       .  A
O961       Zr964   2.509       .  S
O961        C974   1.306       .  A
O962       Zr968   2.440   1_554  S
O962        C971   1.294       .  A
O963       Zr968   2.420       .  S
O963        C972   1.288       .  A
Zr964      O1368   2.480       .  S
Zr964      O1402   2.379       .  S
Zr965      O1349   2.493   1_545  S
Zr965      O1367   2.370   1_445  S
Zr965       O969   2.349   1_455  S
Zr966      O1373   2.416       .  S
Zr966      O1376   2.452   1_556  S
Zr966      O1390   2.317   1_556  S
Zr966      O1400   2.333       .  S
Zr967      O1372   2.411       .  S
Zr967      O1377   2.410       .  S
Zr967      O1389   2.342       .  S
Zr967      O1402   2.350   1_556  S
Zr968       O969   2.317       .  S
Zr968       O982   2.335   1_556  S
O969      Zr1387   2.344   1_545  S
O970      Zr1386   2.318   1_554  S
C971       C1052   1.511       .  S
C973       C1025   1.511       .  S
C974       C1032   1.496       .  S
C975       C1105   1.503       .  S
C976       C1112   1.515       .  S
C977       C1092   1.462       .  S
C978       C1082   1.459       .  S
H979        O980   0.966       .  S
O980      Zr1386   2.333       .  S
H981        O982   0.966       .  S
O982      Zr1384   2.381       .  S
O982      Zr1387   2.354   1_544  S
N983       H1015   1.043       .  S
N983        C988   1.348       .  A
N983        C987   1.355       .  A
N984        C991   1.337       .  A
N984        C992   1.341       .  A
N985       H1016   1.042       .  S
N985        C990   1.342       .  A
N985        C989   1.341       .  A
N986        C993   1.344       .  A
N986        C994   1.346       .  A
C987        C995   1.383       .  A
C987       C1003   1.406       .  A
C988       C1004   1.414       .  A
C988        C996   1.392       .  A
C989        C997   1.390       .  A
C989       C1006   1.406       .  A
C990       C1005   1.393       .  A
C990        C998   1.384   1_554  A
C991       C1003   1.390       .  A
C991        C999   1.385       .  A
C992       C1006   1.398       .  A
C992       C1000   1.380       .  A
C993       C1001   1.387       .  A
C993       C1004   1.394       .  A
C994       C1002   1.387       .  A
C994       C1005   1.409       .  A
C995        C996   1.370       .  A
C995       H1007   1.080       .  S
C996       H1008   1.083       .  S
C997        C998   1.373   1_554  A
C997       H1009   1.078   1_554  S
C998       H1010   1.082       .  S
C999       C1000   1.380       .  A
C999       H1011   1.082       .  S
C1000      H1012   1.074       .  S
C1001      C1002   1.372       .  A
C1001      H1013   1.083       .  S
C1002      H1014   1.082       .  S
C1003      C1065   1.487       .  S
C1004      C1075   1.466       .  S
C1005      C1085   1.462   1_554  S
C1006      C1095   1.463       .  S
C1017      C1042   1.579       .  S
C1017      C1055   1.576       .  S
C1017      C1225   1.580       .  S
C1018      C1442   1.573       .  S
C1018      C1455   1.584       .  S
C1018      C1662   1.561       .  S
C1018      C1255   1.580   1_565  S
C1019      C1125   1.582       .  S
C1019      C1135   1.567       .  S
C1019      C1152   1.578       .  S
C1020      C1102   1.583       .  S
C1020      C1115   1.576       .  S
C1020      C1165   1.579   1_565  S
C1020      C1595   1.592       .  S
C1021      C1022   1.401       .  A
C1021      C1026   1.396       .  A
C1021      H1028   1.079       .  S
C1022      C1443   1.431       .  A
C1022      C1438   1.571       .  S
C1023      C1442   1.431   1_545  A
C1023      C1024   1.415       .  A
C1023      F1030   1.357       .  S
C1024      C1445   1.402       .  A
C1024      H1029   1.083       .  S
C1025      C1444   1.401       .  A
C1025      C1026   1.424       .  A
C1026      F1027   1.357       .  S
C1031      C1032   1.396       .  A
C1031      C1456   1.407       .  A
C1031      H1458   1.083       .  S
C1032      C1033   1.409       .  A
C1033      C1034   1.409       .  A
C1033      F1040   1.357       .  S
C1034      C1035   1.415       .  A
C1034      H1039   1.083       .  S
C1035      C1456   1.435       .  A
C1035      C1438   1.582       .  S
C1036      C1451   1.408       .  A
C1036      C1455   1.436       .  A
C1036      F1037   1.356       .  S
H1038      C1451   1.083       .  S
C1041      C1046   1.411       .  A
C1041      H1048   1.079       .  S
C1042      C1043   1.416       .  A
C1043      C1044   1.404       .  A
C1043      F1050   1.353       .  S
C1044      C1045   1.408       .  A
C1044      H1049   1.084       .  S
C1046      F1047   1.357       .  S
C1051      C1052   1.411       .  A
C1051      C1056   1.403       .  A
C1051      H1058   1.083       .  S
C1053      C1054   1.411       .  A
C1053      F1060   1.357       .  S
C1054      C1055   1.422       .  A
C1054      H1059   1.082       .  S
C1056      F1057   1.351       .  S
C1061      C1062   1.399       .  A
C1061      C1066   1.404       .  A
C1061      H1068   1.083   1_554  S
C1062      C1063   1.408       .  A
C1063      C1064   1.392       .  A
C1063      F1070   1.355       .  S
C1064      C1065   1.396       .  A
C1064      H1069   1.083       .  S
C1065      C1066   1.417       .  A
C1066      F1067   1.358       .  S
C1071      C1072   1.397   1_556  A
C1071      C1076   1.390   1_556  A
C1071      H1078   1.083       .  S
C1072      C1073   1.410       .  A
C1073      C1074   1.387       .  A
C1073      F1080   1.353       .  S
C1074      C1075   1.388       .  A
C1074      H1079   1.080       .  S
C1075      C1076   1.410       .  A
C1076      F1077   1.358       .  S
C1081      C1082   1.403       .  A
C1081      C1086   1.388       .  A
C1081      H1088   1.084       .  S
C1082      C1083   1.406       .  A
C1083      C1084   1.389       .  A
C1083      F1090   1.358       .  S
C1084      C1085   1.397       .  A
C1084      H1089   1.084   1_556  S
C1085      C1086   1.401       .  A
C1086      F1087   1.358       .  S
C1091      C1092   1.403       .  A
C1091      C1096   1.398       .  A
C1091      H1098   1.083   1_554  S
C1092      C1093   1.406       .  A
C1093      C1094   1.388       .  A
C1093      F1100   1.356       .  S
C1094      C1095   1.398       .  A
C1094      H1099   1.084       .  S
C1095      C1096   1.406       .  A
C1096      F1097   1.357       .  S
C1101      C1102   1.426   1_545  A
C1101      C1106   1.409       .  A
C1101      H1108   1.078       .  S
C1102      C1523   1.419       .  A
C1103      C1522   1.418       .  A
C1103      C1104   1.411       .  A
C1103      F1110   1.357       .  S
C1104      C1525   1.413       .  A
C1104      H1109   1.083       .  S
C1105      C1524   1.411       .  A
C1105      C1106   1.400   1_565  A
C1106      F1107   1.358       .  S
C1111      C1112   1.415       .  A
C1111      C1116   1.404       .  A
C1111      H1118   1.083       .  S
C1112      C1113   1.407       .  A
C1113      C1114   1.414       .  A
C1113      F1120   1.357       .  S
C1114      C1115   1.426   1_545  A
C1114      H1119   1.083   1_545  S
C1115      C1116   1.415   1_565  A
C1116      F1117   1.354       .  S
C1121      C1126   1.407       .  A
C1121      H1128   1.083       .  S
C1122      C1123   1.400       .  A
C1123      C1124   1.410       .  A
C1123      F1130   1.356       .  S
C1124      C1125   1.423       .  A
C1124      H1129   1.078       .  S
C1126      F1127   1.356       .  S
C1131      C1136   1.404       .  A
C1131      H1138   1.083       .  S
C1132      C1133   1.407       .  A
C1133      C1134   1.409       .  A
C1133      F1140   1.357       .  S
C1134      C1135   1.421       .  A
C1134      H1139   1.083       .  S
C1136      F1137   1.355       .  S
C1141      C1142   1.405       .  A
C1141      C1146   1.404       .  A
C1141      H1148   1.079       .  S
C1142      C1143   1.404       .  A
C1143      C1144   1.416       .  A
C1143      F1150   1.357       .  S
C1144      C1145   1.428       .  A
C1144      H1149   1.079       .  S
C1145      C1146   1.417       .  A
C1146      F1147   1.356       .  S
C1151      C1152   1.423       .  A
C1151      C1156   1.412       .  A
C1151      H1158   1.083       .  S
C1152      C1153   1.417       .  A
C1153      C1154   1.405       .  A
C1153      F1160   1.356       .  S
C1154      C1155   1.413       .  A
C1154      H1159   1.083       .  S
C1155      C1156   1.406       .  A
C1156      F1157   1.357       .  S
C1161      C1162   1.402       .  A
C1161      C1166   1.414       .  A
C1161      H1168   1.083       .  S
C1162      C1163   1.420       .  A
C1163      C1164   1.395       .  A
C1163      F1170   1.358       .  S
C1164      C1165   1.404       .  A
C1164      H1169   1.074       .  S
C1165      C1166   1.433       .  A
C1166      F1167   1.356       .  S
C1171      C1172   1.400       .  A
C1171      C1176   1.411       .  A
C1171      H1178   1.083       .  S
C1172      C1173   1.408       .  A
C1173      C1174   1.409       .  A
C1173      F1180   1.357       .  S
C1174      C1175   1.417       .  A
C1174      H1179   1.083       .  S
C1175      C1176   1.433       .  A
C1175      C1440   1.589       .  S
C1176      F1177   1.356       .  S
C1181      C1182   1.406       .  A
C1181      C1186   1.392       .  A
C1181      H1188   1.079       .  S
C1182      C1183   1.399       .  A
C1183      C1184   1.396       .  A
C1183      F1190   1.357       .  S
C1184      C1185   1.413       .  A
C1184      H1189   1.076       .  S
C1185      C1186   1.401       .  A
C1186      F1187   1.357       .  S
C1191      C1192   1.398       .  A
C1191      C1196   1.385       .  A
C1191      H1198   1.084       .  S
C1192      C1193   1.409       .  A
C1193      C1194   1.394       .  A
C1193      F1200   1.353       .  S
C1194      C1195   1.403       .  A
C1194      H1199   1.083       .  S
C1195      C1196   1.414       .  A
C1196      F1197   1.353       .  S
C1201      C1202   1.395       .  A
C1201      C1206   1.391       .  A
C1201      H1208   1.084       .  S
C1202      C1203   1.404       .  A
C1203      C1204   1.391       .  A
C1203      F1210   1.357       .  S
C1204      C1205   1.399       .  A
C1204      H1209   1.083       .  S
C1205      C1206   1.410       .  A
C1206      F1207   1.358       .  S
C1211      C1212   1.409       .  A
C1211      C1216   1.386       .  A
C1211      H1218   1.083       .  S
C1212      C1213   1.397       .  A
C1213      C1214   1.378       .  A
C1213      F1220   1.358       .  S
C1214      C1215   1.403       .  A
C1214      H1219   1.084       .  S
C1215      C1216   1.391       .  A
C1216      F1217   1.357       .  S
C1221      C1222   1.406       .  A
C1221      C1226   1.403       .  A
C1221      H1228   1.084       .  S
C1222      C1223   1.405       .  A
C1223      C1224   1.416       .  A
C1223      F1230   1.357       .  S
C1224      C1225   1.427       .  A
C1224      H1229   1.080       .  S
C1225      C1226   1.418       .  A
C1226      F1227   1.357       .  S
C1231      C1232   1.415       .  A
C1231      C1236   1.406       .  A
C1231      H1238   1.083       .  S
C1232      C1233   1.406       .  A
C1233      C1234   1.413       .  A
C1233      F1240   1.357       .  S
C1234      C1235   1.424       .  A
C1234      H1239   1.082       .  S
C1235      C1236   1.416       .  A
C1236      F1237   1.356       .  S
C1241      C1242   1.401       .  A
C1241      C1246   1.395       .  A
C1241      H1248   1.079       .  S
C1242      C1243   1.425       .  A
C1242      C1438   1.562       .  S
C1243      C1244   1.409       .  A
C1243      F1250   1.351       .  S
C1244      C1245   1.400       .  A
C1244      H1249   1.082       .  S
C1245      C1246   1.427       .  A
C1246      F1247   1.358       .  S
C1251      C1252   1.408       .  A
C1251      C1256   1.409       .  A
C1251      H1258   1.083       .  S
C1252      C1253   1.403       .  A
C1253      C1254   1.406       .  A
C1253      F1260   1.357       .  S
C1254      C1255   1.424       .  A
C1254      H1259   1.080       .  S
C1255      C1256   1.419       .  A
C1256      F1257   1.357       .  S
O1261     Zr1297   2.481       .  S
O1261      C1272   1.301       .  A
O1262     Zr1296   2.528       .  S
O1262      C1273   1.310       .  A
O1263     Zr1269   2.431       .  S
O1263      C1274   1.290       .  A
O1264     Zr1269   2.411       .  S
O1264      C1275   1.286       .  A
O1265     Zr1299   2.416       .  S
O1265      C1275   1.289       .  A
O1266     Zr1298   2.421       .  S
O1266      C1274   1.286       .  A
O1267     Zr1269   2.393       .  S
O1267      C1273   1.283       .  A
O1268     Zr1269   2.447       .  S
O1268      C1272   1.294       .  A
Zr1269     O1270   2.342       .  S
Zr1269     O1271   2.331       .  S
Zr1269     O1279   2.333       .  S
Zr1269     O1277   2.334       .  S
O1270     Zr1296   2.365       .  S
O1270     Zr1299   2.325       .  S
O1271     Zr1297   2.375       .  S
O1271     Zr1298   2.347       .  S
C1272      C1672   1.497       .  S
C1273      C1582   1.512       .  S
C1274      C1602   1.460       .  S
C1275      C1612   1.473       .  S
H1276      O1277   0.962       .  S
O1277     Zr1296   2.344       .  S
O1277     Zr1298   2.332       .  S
H1278      O1279   0.967       .  S
O1279     Zr1297   2.376       .  S
O1279     Zr1299   2.351       .  S
O1280     Zr1296   2.498       .  S
O1280      C1303   1.303       .  A
O1281     Zr1297   2.524       .  S
O1281      C1304   1.309       .  A
O1282     Zr1298   2.420       .  S
O1282      C1305   1.289       .  A
O1283     Zr1299   2.431       .  S
O1283      C1306   1.292       .  A
O1284     Zr1299   2.411       .  S
O1284      C1307   1.288       .  A
O1285     Zr1298   2.428       .  S
O1285      C1308   1.291       .  A
O1286     Zr1300   2.347       .  S
O1286      C1309   1.275       .  A
O1287     Zr1300   2.400       .  S
O1287      C1310   1.285       .  A
O1288     Zr1298   2.432       .  S
O1288      C1309   1.290       .  A
O1289     Zr1299   2.428       .  S
O1289      C1310   1.288       .  A
O1290     Zr1296   2.538       .  S
O1290      C1305   1.312       .  A
O1291     Zr1297   2.530       .  S
O1291      C1308   1.311       .  A
O1292     Zr1297   2.530       .  S
O1292      C1307   1.311       .  A
O1293     Zr1296   2.519       .  S
O1293      C1306   1.309       .  A
O1294     Zr1300   2.442       .  S
O1294      C1303   1.292       .  A
O1295     Zr1300   2.372       .  S
O1295      C1304   1.277       .  A
Zr1296     O1302   2.355       .  S
Zr1296     O1314   2.373       .  S
Zr1297     O1301   2.351       .  S
Zr1297     O1312   2.364       .  S
Zr1298     O1302   2.340       .  S
Zr1298     O1312   2.333       .  S
Zr1299     O1301   2.320       .  S
Zr1299     O1314   2.351       .  S
Zr1300     O1301   2.311       .  S
Zr1300     O1302   2.317       .  S
Zr1300     O1314   2.309       .  S
Zr1300     O1312   2.342       .  S
C1303      C1592   1.500       .  S
C1304      C1665   1.504       .  S
C1305      C1562   1.504       .  S
C1306      C1575   1.511       .  S
C1307      C1642   1.498       .  S
C1308      C1652   1.519       .  S
C1309      C1632   1.444       .  S
C1310      C1625   1.467       .  S
H1311      O1312   0.966       .  S
H1313      O1314   0.966       .  S
N1315      H1347   1.041       .  S
N1315      C1319   1.336       .  A
N1316      C1324   1.342       .  A
N1317      H1348   1.045       .  S
N1317      C1321   1.353   1_455  A
N1318      C1326   1.340       .  A
C1319      C1327   1.391       .  A
C1319      C1335   1.398       .  A
C1320      C1336   1.399       .  A
C1320      C1328   1.383       .  A
C1321      C1329   1.381   1_655  A
C1321      C1338   1.411       .  A
C1322      C1337   1.415       .  A
C1322      C1330   1.387       .  A
C1323      C1335   1.402   1_545  A
C1323      C1331   1.386       .  A
C1324      C1338   1.391       .  A
C1324      C1332   1.385       .  A
C1325      C1333   1.387       .  A
C1325      C1336   1.412       .  A
C1326      C1334   1.385       .  A
C1326      C1337   1.390       .  A
C1327      H1339   1.082       .  S
C1328      H1340   1.082       .  S
C1329      H1341   1.080   1_455  S
C1330      H1342   1.083       .  S
C1331      H1343   1.082   1_545  S
C1332      H1344   1.077       .  S
C1333      H1345   1.082       .  S
C1334      H1346   1.083       .  S
C1335      C1635   1.445       .  S
C1336      C1622   1.463       .  S
C1337      C1615   1.491       .  S
C1338      C1605   1.483       .  S
O1350     Zr1384   2.503   1_465  S
O1350      C1361   1.305       .  A
O1351      C1362   1.290   1_556  A
O1352     Zr1357   2.373   1_655  S
O1352      C1363   1.278       .  A
O1353     Zr1387   2.446       .  S
O1353      C1363   1.293       .  A
O1354     Zr1386   2.432   1_565  S
O1354      C1362   1.287   1_556  A
O1356      C1360   1.293       .  A
Zr1357     O1358   2.352   1_456  S
Zr1357     O1367   2.335   1_455  S
O1358     Zr1384   2.369   1_565  S
O1358     Zr1387   2.330   1_554  S
O1359     Zr1386   2.341   1_565  S
C1360      C1552   1.508       .  S
C1362      C1482   1.464       .  S
C1363      C1492   1.451   1_556  S
H1364      O1365   0.961       .  S
O1365     Zr1386   2.329   1_564  S
H1366      O1367   0.964       .  S
O1367     Zr1387   2.330       .  S
O1368      C1391   1.301       .  A
O1369     Zr1385   2.524   1_655  S
O1369      C1392   1.310       .  A
O1370     Zr1386   2.390   1_554  S
O1370      C1393   1.283       .  A
O1371     Zr1387   2.451   1_554  S
O1371      C1394   1.294       .  A
O1372      C1395   1.287       .  A
O1373      C1396   1.290       .  A
O1374      C1397   1.281   1_556  A
O1375     Zr1388   2.417       .  S
O1375      C1398   1.289       .  A
O1376      C1397   1.294       .  A
O1377      C1398   1.284       .  A
O1378      C1393   1.315       .  A
O1379      C1396   1.308       .  A
O1380     Zr1385   2.532   1_655  S
O1380      C1395   1.312       .  A
O1381     Zr1384   2.506   1_565  S
O1381      C1394   1.306       .  A
O1382     Zr1388   2.437   1_554  S
O1382      C1391   1.294       .  A
O1383     Zr1388   2.405       .  S
O1383      C1392   1.285       .  A
Zr1385     O1389   2.354   1_455  S
Zr1388     O1389   2.321       .  S
Zr1388     O1402   2.330   1_556  S
C1391      C1472   1.505       .  S
C1393      C1445   1.514       .  S
C1394      C1452   1.498       .  S
C1395      C1525   1.504       .  S
C1396      C1532   1.509       .  S
C1397      C1512   1.468       .  S
C1398      C1502   1.464       .  S
H1399      O1400   0.966       .  S
H1401      O1402   0.966       .  S
N1403      H1435   1.043       .  S
N1403      C1408   1.346       .  A
N1403      C1407   1.353       .  A
N1404      C1411   1.337       .  A
N1404      C1412   1.342       .  A
N1405      H1436   1.043       .  S
N1405      C1410   1.342       .  A
N1405      C1409   1.340       .  A
N1406      C1413   1.342       .  A
N1406      C1414   1.344       .  A
C1407      C1415   1.384       .  A
C1407      C1423   1.405       .  A
C1408      C1424   1.411       .  A
C1408      C1416   1.392       .  A
C1409      C1417   1.389       .  A
C1409      C1426   1.404       .  A
C1410      C1425   1.394       .  A
C1410      C1418   1.384   1_554  A
C1411      C1423   1.392       .  A
C1411      C1419   1.386       .  A
C1412      C1426   1.399       .  A
C1412      C1420   1.381       .  A
C1413      C1421   1.387       .  A
C1413      C1424   1.392       .  A
C1414      C1422   1.387       .  A
C1414      C1425   1.408       .  A
C1415      C1416   1.370       .  A
C1415      H1427   1.081       .  S
C1416      H1428   1.083       .  S
C1417      C1418   1.376   1_554  A
C1417      H1429   1.079   1_554  S
C1418      H1430   1.082       .  S
C1419      C1420   1.383       .  A
C1419      H1431   1.082       .  S
C1420      H1432   1.075       .  S
C1421      C1422   1.373       .  A
C1421      H1433   1.083       .  S
C1422      H1434   1.082       .  S
C1423      C1485   1.485       .  S
C1424      C1495   1.462       .  S
C1425      C1505   1.464   1_554  S
C1426      C1515   1.464       .  S
C1437      C1462   1.578       .  S
C1437      C1475   1.573       .  S
C1437      C1645   1.580       .  S
C1438      C1675   1.576       .  S
C1439      C1545   1.583       .  S
C1439      C1555   1.567       .  S
C1439      C1572   1.576       .  S
C1440      C1522   1.582       .  S
C1440      C1535   1.571       .  S
C1440      C1585   1.575       .  S
C1441      C1442   1.402       .  A
C1441      C1446   1.398       .  A
C1441      H1448   1.078       .  S
C1443      C1444   1.414       .  A
C1443      F1450   1.357       .  S
C1444      H1449   1.083       .  S
C1445      C1446   1.425   1_545  A
C1446      F1447   1.357       .  S
C1451      C1452   1.397       .  A
C1452      C1453   1.409   1_565  A
C1453      C1454   1.410       .  A
C1453      F1460   1.357       .  S
C1454      C1455   1.415   1_545  A
C1454      H1459   1.083       .  S
C1456      F1457   1.355       .  S
C1461      C1466   1.413       .  A
C1461      H1468   1.080       .  S
C1462      C1463   1.416       .  A
C1463      C1464   1.405       .  A
C1463      F1470   1.353       .  S
C1464      C1465   1.408       .  A
C1464      H1469   1.084       .  S
C1466      F1467   1.357       .  S
C1471      C1472   1.408       .  A
C1471      C1476   1.399       .  A
C1471      H1478   1.083       .  S
C1473      C1474   1.409       .  A
C1473      F1480   1.357       .  S
C1474      C1475   1.421       .  A
C1474      H1479   1.083       .  S
C1476      F1477   1.350       .  S
C1481      C1482   1.396       .  A
C1481      C1486   1.402       .  A
C1481      H1488   1.083   1_554  S
C1482      C1483   1.406       .  A
C1483      C1484   1.388       .  A
C1483      F1490   1.354       .  S
C1484      C1485   1.395       .  A
C1484      H1489   1.083       .  S
C1485      C1486   1.419       .  A
C1486      F1487   1.358       .  S
C1491      C1492   1.395   1_556  A
C1491      C1496   1.390   1_556  A
C1491      H1498   1.083       .  S
C1492      C1493   1.407       .  A
C1493      C1494   1.384       .  A
C1493      F1500   1.351       .  S
C1494      C1495   1.386       .  A
C1494      H1499   1.080       .  S
C1495      C1496   1.410       .  A
C1496      F1497   1.358   1_554  S
C1501      C1502   1.405       .  A
C1501      C1506   1.388       .  A
C1501      H1508   1.084       .  S
C1502      C1503   1.407       .  A
C1503      C1504   1.390       .  A
C1503      F1510   1.357       .  S
C1504      C1505   1.398       .  A
C1504      H1509   1.084   1_556  S
C1505      C1506   1.402       .  A
C1506      F1507   1.359       .  S
C1511      C1512   1.405       .  A
C1511      C1516   1.400       .  A
C1511      H1518   1.083   1_554  S
C1512      C1513   1.406       .  A
C1513      C1514   1.389       .  A
C1513      F1520   1.356       .  S
C1514      C1515   1.399       .  A
C1514      H1519   1.084       .  S
C1515      C1516   1.405       .  A
C1516      F1517   1.357       .  S
C1521      C1522   1.426       .  A
C1521      C1526   1.409       .  A
C1521      H1528   1.078       .  S
C1523      C1524   1.410       .  A
C1523      F1530   1.357       .  S
C1524      H1529   1.083       .  S
C1525      C1526   1.400       .  A
C1526      F1527   1.357       .  S
C1531      C1532   1.414       .  A
C1531      C1536   1.402       .  A
C1531      H1538   1.083       .  S
C1532      C1533   1.405       .  A
C1533      C1534   1.411       .  A
C1533      F1540   1.357       .  S
C1534      C1535   1.426       .  A
C1534      H1539   1.083       .  S
C1535      C1536   1.414       .  A
C1536      F1537   1.354       .  S
C1541      C1546   1.405       .  A
C1541      H1548   1.084       .  S
C1542      C1543   1.401       .  A
C1543      C1544   1.411       .  A
C1543      F1550   1.356       .  S
C1544      C1545   1.424       .  A
C1544      H1549   1.077       .  S
C1546      F1547   1.357       .  S
C1551      C1556   1.401       .  A
C1551      H1558   1.083       .  S
C1552      C1553   1.407       .  A
C1553      C1554   1.409       .  A
C1553      F1560   1.357       .  S
C1554      C1555   1.422       .  A
C1554      H1559   1.083       .  S
C1556      F1557   1.355       .  S
C1561      C1562   1.407       .  A
C1561      C1566   1.405       .  A
C1561      H1568   1.081       .  S
C1562      C1563   1.405       .  A
C1563      C1564   1.417       .  A
C1563      F1570   1.357       .  S
C1564      C1565   1.427       .  A
C1564      H1569   1.079       .  S
C1565      C1566   1.417       .  A
C1566      F1567   1.357       .  S
C1571      C1572   1.424       .  A
C1571      C1576   1.411       .  A
C1571      H1578   1.083       .  S
C1572      C1573   1.416       .  A
C1573      C1574   1.405       .  A
C1573      F1580   1.356       .  S
C1574      C1575   1.414       .  A
C1574      H1579   1.083       .  S
C1575      C1576   1.406       .  A
C1576      F1577   1.357       .  S
C1581      C1582   1.403       .  A
C1581      C1586   1.414       .  A
C1581      H1588   1.083       .  S
C1582      C1583   1.421       .  A
C1583      C1584   1.393       .  A
C1583      F1590   1.356       .  S
C1584      C1585   1.402       .  A
C1584      H1589   1.075       .  S
C1585      C1586   1.431       .  A
C1586      F1587   1.357       .  S
C1591      C1592   1.398       .  A
C1591      C1596   1.409       .  A
C1591      H1598   1.083       .  S
C1592      C1593   1.409       .  A
C1593      C1594   1.411       .  A
C1593      F1600   1.358       .  S
C1594      C1595   1.419       .  A
C1594      H1599   1.083       .  S
C1595      C1596   1.433       .  A
C1596      F1597   1.355       .  S
C1601      C1602   1.407       .  A
C1601      C1606   1.393       .  A
C1601      H1608   1.080       .  S
C1602      C1603   1.394       .  A
C1603      C1604   1.393       .  A
C1603      F1610   1.357       .  S
C1604      C1605   1.413       .  A
C1604      H1609   1.075       .  S
C1605      C1606   1.400       .  A
C1606      F1607   1.357       .  S
C1611      C1612   1.398       .  A
C1611      C1616   1.386       .  A
C1611      H1618   1.083       .  S
C1612      C1613   1.407       .  A
C1613      C1614   1.393       .  A
C1613      F1620   1.352       .  S
C1614      C1615   1.404       .  A
C1614      H1619   1.083       .  S
C1615      C1616   1.416       .  A
C1616      F1617   1.351       .  S
C1621      C1622   1.395       .  A
C1621      C1626   1.389       .  A
C1621      H1628   1.084       .  S
C1622      C1623   1.405       .  A
C1623      C1624   1.393       .  A
C1623      F1630   1.357       .  S
C1624      C1625   1.401       .  A
C1624      H1629   1.083       .  S
C1625      C1626   1.410       .  A
C1626      F1627   1.357       .  S
C1631      C1632   1.410       .  A
C1631      C1636   1.384       .  A
C1631      H1638   1.083       .  S
C1632      C1633   1.398       .  A
C1633      C1634   1.381       .  A
C1633      F1640   1.358       .  S
C1634      C1635   1.404       .  A
C1634      H1639   1.084       .  S
C1635      C1636   1.389       .  A
C1636      F1637   1.357       .  S
C1641      C1642   1.406       .  A
C1641      C1646   1.404       .  A
C1641      H1648   1.084       .  S
C1642      C1643   1.404       .  A
C1643      C1644   1.415       .  A
C1643      F1650   1.357       .  S
C1644      C1645   1.427       .  A
C1644      H1649   1.080       .  S
C1645      C1646   1.417       .  A
C1646      F1647   1.357       .  S
C1651      C1652   1.416       .  A
C1651      C1656   1.408       .  A
C1651      H1658   1.083       .  S
C1652      C1653   1.408       .  A
C1653      C1654   1.414       .  A
C1653      F1660   1.356       .  S
C1654      C1655   1.423       .  A
C1654      H1659   1.082       .  S
C1655      C1656   1.418       .  A
C1656      F1657   1.356       .  S
C1661      C1662   1.400       .  A
C1661      C1666   1.394       .  A
C1661      H1668   1.079       .  S
C1662      C1663   1.426       .  A
C1663      C1664   1.409       .  A
C1663      F1670   1.352       .  S
C1664      C1665   1.400       .  A
C1664      H1669   1.082       .  S
C1665      C1666   1.426       .  A
C1666      F1667   1.358       .  S
C1671      C1672   1.407       .  A
C1671      C1676   1.407       .  A
C1671      H1678   1.083       .  S
C1672      C1673   1.404       .  A
C1673      C1674   1.405       .  A
C1673      F1680   1.358       .  S
C1674      C1675   1.423       .  A
C1674      H1679   1.080       .  S
C1675      C1676   1.418       .  A
C1676      F1677   1.356       .  S
