geometry optimzed in LAMMPS
_audit_creation_date              2020-12-01 
_audit_creation_method            'lammps2cif' 
_symmetry_space_group_name_H-M    'P1' 
_symmetry_Int_Tables_number       1 
_symmetry_cell_setting            triclinic 
loop_ 
_symmetry_equiv_pos_as_xyz 
  x,y,z 
_cell_length_a                    31.02724424 
_cell_length_b                    31.033868826747128 
_cell_length_c                    31.06542346752281 
_cell_angle_alpha                 89.91553255649202 
_cell_angle_beta                  89.85050804053833 
_cell_angle_gamma                 89.3929695661822 
loop_ 
_atom_site_label 
_atom_site_type_symbol 
_atom_site_fract_x 
_atom_site_fract_y 
_atom_site_fract_z 
_atom_site_charge 
C1          C  0.11110020  0.85067364  0.46288286     0.03100
C2          C  0.09365538  0.83764440  0.50340925     0.03100
C3          C  0.11327706  0.85632969  0.54135416     0.03100
C4          C  0.14293943  0.89092627  0.53827828     0.03100
C5          C  0.15380565  0.90757605  0.49764975     0.03100
C6          C  0.14101174  0.88542079  0.46042407     0.03100
C7          C  0.14316238  0.11510601  0.53362644     0.03100
C8          C  0.15368770  0.09423864  0.49402129     0.03100
C9          C  0.14850810  0.11652072  0.45414844     0.03100
C10         C  0.12388501  0.15598363  0.45301404     0.03100
C11         C  0.10351383  0.17092782  0.49248356     0.03100
C12         C  0.12126828  0.15664204  0.53355576     0.03100
C13         C  0.90284849  0.13761634  0.53396045     0.03100
C14         C  0.91717299  0.15304324  0.49319262     0.03100
C15         C  0.89544865  0.13882348  0.45555478     0.03100
C16         C  0.86864398  0.10175048  0.45810458     0.03100
C17         C  0.86097699  0.08163668  0.49808094     0.03100
C18         C  0.87385749  0.10237265  0.53618478     0.03100
C19         C  0.88628854  0.83612533  0.54262854     0.03100
C20         C  0.90895306  0.82531189  0.50283551     0.03100
C21         C  0.89035205  0.83916928  0.46283577     0.03100
C22         C  0.86088872  0.87485398  0.46221219     0.03100
C23         C  0.85069450  0.89557719  0.50134906     0.03100
C24         C  0.86003840  0.87514014  0.54121938     0.03100
C25         C  0.46406321  0.10886339  0.14608138     0.03100
C26         C  0.46532376  0.13899314  0.11045988     0.03100
C27         C  0.50445877  0.15105885  0.08969637     0.03100
C28         C  0.54342460  0.13671073  0.11031988     0.03100
C29         C  0.54307230  0.10613035  0.14479981     0.03100
C30         C  0.50300380  0.08813371  0.16074036     0.03100
C31         C  0.46538395  0.11026318  0.85145683     0.03100
C32         C  0.46471822  0.14309253  0.88333987     0.03100
C33         C  0.50372129  0.15812943  0.90210973     0.03100
C34         C  0.54390707  0.15017581  0.87891738     0.03100
C35         C  0.54448890  0.11317908  0.85032392     0.03100
C36         C  0.50565824  0.09233067  0.83892865     0.03100
C37         C  0.54523409  0.88036655  0.15892350     0.03100
C38         C  0.50487926  0.90264887  0.16969881     0.03100
C39         C  0.46557758  0.88450175  0.15438118     0.03100
C40         C  0.46568209  0.85525829  0.11915970     0.03100
C41         C  0.50533340  0.84514532  0.09902814     0.03100
C42         C  0.54487795  0.85507418  0.11957037     0.03100
C43         C  0.54276430  0.89048930  0.85444932     0.03100
C44         C  0.50305283  0.90664269  0.83762197     0.03100
C45         C  0.46339481  0.88625888  0.85008747     0.03100
C46         C  0.46399388  0.86357914  0.89092449     0.03100
C47         C  0.50334763  0.85537787  0.91281989     0.03100
C48         C  0.54264026  0.86457661  0.89225226     0.03100
C49         C  0.11013341  0.53930362  0.86023528     0.03100
C50         C  0.09243200  0.49906538  0.84868712     0.03100
C51         C  0.11253784  0.46080307  0.86377015     0.03100
C52         C  0.14481456  0.46313886  0.89638741     0.03100
C53         C  0.15752180  0.50374414  0.91286443     0.03100
C54         C  0.14294707  0.54167252  0.89213544     0.03100
C55         C  0.15753222  0.53495617  0.11743742     0.03100
C56         C  0.17446673  0.49690142  0.09728662     0.03100
C57         C  0.16408322  0.45508193  0.11477503     0.03100
C58         C  0.12593483  0.45258360  0.14122778     0.03100
C59         C  0.10360663  0.49061868  0.15519807     0.03100
C60         C  0.12368735  0.53182481  0.14870745     0.03100
C61         C  0.89175067  0.45045549  0.15184014     0.03100
C62         C  0.91423042  0.48990593  0.16040337     0.03100
C63         C  0.89573214  0.52938316  0.14536266     0.03100
C64         C  0.86394819  0.53007442  0.11237344     0.03100
C65         C  0.85061532  0.49022692  0.09461061     0.03100
C66         C  0.86287974  0.45090385  0.11521068     0.03100
C67         C  0.88632514  0.53851548  0.86181679     0.03100
C68         C  0.90616081  0.49877221  0.84905082     0.03100
C69         C  0.88630839  0.45923126  0.85983857     0.03100
C70         C  0.85227043  0.45905948  0.89077281     0.03100
C71         C  0.83682317  0.49856689  0.90870792     0.03100
C72         C  0.84719540  0.53834057  0.88729869     0.03100
O73         O  0.11175666  0.95644046  0.82470333    -0.79300
O74         O  0.18028084  0.04633879  0.88623078    -0.79400
O75         O  0.21436949  0.90947732  0.84852246    -0.79400
O76         O  0.15419342  0.09192408  0.78307330    -0.79300
O77         O  0.18136314  0.95646240  0.88953571    -0.79400
O78         O  0.11322617  0.04850819  0.82069061    -0.79400
O79         O  0.21220541  0.09188950  0.84262427    -0.79300
O80         O  0.15341425  0.90912626  0.79192019    -0.79400
C81         C  0.11870539  0.91823094  0.81195575     1.10400
C82         C  0.19206935  0.08426276  0.87779286     1.10200
C83         C  0.19479904  0.91846463  0.88347816     1.10400
C84         C  0.12069411  0.08571720  0.80545418     1.10300
O85         O  0.13683330  0.03967582  0.73019601    -0.79300
O86         O  0.27219520  0.95797597  0.85787816    -0.79400
O87         O  0.20787897  0.95272067  0.72879109    -0.79300
O88         O  0.27269389  0.04465643  0.78589176    -0.79300
O89         O  0.27010112  0.04277237  0.85640806    -0.79400
O90         O  0.13761801  0.95619863  0.73379260    -0.79300
O91         O  0.20693788  0.04290534  0.72299304    -0.79300
O92         O  0.27154421  0.95487875  0.78768418    -0.79400
Co93       Co  0.12951833  0.00023716  0.78160189     1.51500
Co94       Co  0.22179539  0.00084389  0.86805402     1.51700
Co95       Co  0.21133406  0.93728209  0.78952927     1.51600
Co96       Co  0.21130981  0.06173432  0.78437091     1.51500
O97         O  0.19297956  0.00017623  0.80628739    -1.41300
C98         C  0.16961381  0.04514970  0.70622600     1.10300
C99         C  0.29135300  0.94937571  0.82240176     1.10400
C100        C  0.17153869  0.94922334  0.71156035     1.10300
C101        C  0.29120977  0.04886994  0.82178873     1.10300
O102        O  0.05070368  0.11336405  0.81911069    -0.79300
O103        O  0.95737831  0.17115688  0.88541614    -0.79400
O104        O  0.09315775  0.21401502  0.84624714    -0.79400
O105        O  0.91390343  0.14749304  0.78292936    -0.79300
O106        O  0.04927572  0.17703794  0.88732259    -0.79400
O107        O  0.96173174  0.10695411  0.81580101    -0.79400
O108        O  0.90985903  0.20401197  0.84428703    -0.79300
O109        O  0.09615889  0.15573916  0.78651602    -0.79400
C110        C  0.08828069  0.12058471  0.80621254     1.10400
C111        C  0.91899712  0.18374233  0.87881620     1.10200
C112        C  0.08608869  0.19340353  0.88081292     1.10400
C113        C  0.92332550  0.11315872  0.80340444     1.10300
O114        O  0.96609364  0.13815978  0.72698261    -0.79300
O115        O  0.03905934  0.26656565  0.86216027    -0.79400
O116        O  0.04770679  0.21381865  0.72738406    -0.79300
O117        O  0.95256314  0.26857780  0.79053248    -0.79300
O118        O  0.95557121  0.26236918  0.86064820    -0.79400
O119        O  0.05064414  0.14353720  0.72691571    -0.79300
O120        O  0.95744705  0.20827406  0.72567392    -0.79300
O121        O  0.04424959  0.27358471  0.79234958    -0.79400
Co122      Co  0.00714190  0.12975228  0.77632170     1.51500
Co123      Co  0.00049625  0.21509445  0.86905420     1.51700
Co124      Co  0.06438255  0.21339468  0.78833874     1.51600
Co125      Co  0.93938968  0.20692733  0.78636300     1.51500
O126        O  0.00274426  0.19107765  0.80539912    -1.41300
C127        C  0.95792807  0.17258659  0.70634228     1.10300
C128        C  0.04695029  0.28980994  0.82942356     1.10400
C129        C  0.05663825  0.17956687  0.70762948     1.10300
C130        C  0.94815864  0.28516077  0.82730134     1.10300
O131        O  0.04573502  0.88240056  0.17808573    -0.79300
O132        O  0.96082314  0.81159739  0.10881635    -0.79400
O133        O  0.09703261  0.78139821  0.15543678    -0.79400
O134        O  0.90960599  0.83599802  0.20998430    -0.79300
O135        O  0.05074719  0.81480814  0.11416318    -0.79400
O136        O  0.95519398  0.87688491  0.17554062    -0.79400
O137        O  0.91379095  0.77848986  0.14986622    -0.79300
O138        O  0.09262414  0.84193063  0.21266324    -0.79400
C139        C  0.08368774  0.87603939  0.19188158     1.10400
C140        C  0.92262581  0.79887672  0.11551451     1.10200
C141        C  0.08871720  0.80213447  0.12095568     1.10400
C142        C  0.91750849  0.87027409  0.18919217     1.10300
O143        O  0.95769366  0.85045819  0.26725543    -0.79300
O144        O  0.05046951  0.72230569  0.14420512    -0.79400
O145        O  0.04773915  0.78701706  0.27358301    -0.79300
O146        O  0.95934261  0.71826824  0.20579287    -0.79300
O147        O  0.96596312  0.72282638  0.13589642    -0.79400
O148        O  0.04143095  0.85689294  0.26834444    -0.79300
O149        O  0.95565179  0.77984855  0.26997414    -0.79300
O150        O  0.05108548  0.72295786  0.21472353    -0.79400
Co151      Co  0.00007350  0.86211369  0.21819862     1.51500
Co152      Co  0.00709567  0.77192349  0.13028766     1.51700
Co153      Co  0.06613768  0.78349290  0.21331187     1.51600
Co154      Co  0.94070336  0.77874372  0.20871170     1.51500
O155        O  0.00336657  0.79925085  0.19247630    -1.41300
C156        C  0.95061510  0.81579769  0.28827088     1.10300
C157        C  0.05833625  0.70344751  0.18021082     1.10400
C158        C  0.05079711  0.82367857  0.29048272     1.10300
C159        C  0.95602384  0.70139948  0.16905067     1.10300
O160        O  0.21110813  0.84580950  0.09259005    -0.79300
O161        O  0.15763109  0.79517821  0.91006115    -0.79400
O162        O  0.18052775  0.89218901  0.95581144    -0.79400
O163        O  0.11434665  0.82038040  0.04991226    -0.79300
O164        O  0.21732195  0.85159785  0.91083039    -0.79400
O165        O  0.15674689  0.78367579  0.09307363    -0.79400
O166        O  0.11457011  0.82634677  0.95757025    -0.79300
O167        O  0.17689262  0.88864001  0.04731792    -0.79400
C168        C  0.19064171  0.88076171  0.08472741     1.10400
C169        C  0.12223320  0.81449814  0.91915823     1.10200
C170        C  0.19551132  0.88559496  0.91821941     1.10400
C171        C  0.12186185  0.80422235  0.08676728     1.10300
O172        O  0.21398737  0.72745794  0.04438259    -0.79300
O173        O  0.27681792  0.79552509  0.95769469    -0.79400
O174        O  0.26897282  0.86356727  0.04638273    -0.79300
O175        O  0.14308772  0.73723300  0.95643769    -0.79300
O176        O  0.21342820  0.73179649  0.95409107    -0.79400
O177        O  0.27515086  0.79311853  0.04739655    -0.79300
O178        O  0.14359925  0.73082923  0.03966498    -0.79300
O179        O  0.26998255  0.86554131  0.96345556    -0.79400
Co180      Co  0.21397351  0.78827253  0.06326455     1.51500
Co181      Co  0.21582921  0.79345469  0.93911238     1.51700
Co182      Co  0.21984759  0.87286134  0.00326770     1.51600
Co183      Co  0.13327414  0.78303585  0.00109354     1.51500
O184        O  0.19541594  0.80966764  0.00163107    -1.41300
C185        C  0.17786311  0.70902878  0.04722534     1.10300
C186        C  0.29354685  0.83260183  0.95694037     1.10400
C187        C  0.29168537  0.82966908  0.05318241     1.10300
C188        C  0.17689229  0.71475698  0.95008996     1.10300
O189        O  0.09870754  0.14622344  0.19540487    -0.79300
O190        O  0.91136700  0.20009063  0.15116190    -0.79400
O191        O  0.96947420  0.09182429  0.18703031    -0.79400
O192        O  0.05081936  0.17553665  0.09903952    -0.79300
O193        O  0.92008060  0.13956894  0.19597042    -0.79400
O194        O  0.09778626  0.20330115  0.14607908    -0.79400
O195        O  0.95732435  0.17291548  0.10295439    -0.79300
O196        O  0.05232022  0.09783362  0.18274789    -0.79400
C197        C  0.09060554  0.10856491  0.18456164     1.10400
C198        C  0.91907686  0.18321511  0.11392938     1.10200
C199        C  0.93030733  0.10164514  0.18763794     1.10400
C200        C  0.08942828  0.18496020  0.10995740     1.10300
O201        O  0.04680679  0.26292475  0.19950831    -0.79300
O202        O  0.91025141  0.20072126  0.25077527    -0.79400
O203        O  0.05503734  0.16144524  0.26010045    -0.79300
O204        O  0.95870743  0.26046624  0.13669521    -0.79300
O205        O  0.96412817  0.25641501  0.20717381    -0.79400
O206        O  0.10494829  0.21148806  0.24370666    -0.79300
O207        O  0.04532796  0.26064410  0.12933348    -0.79300
O208        O  0.96484531  0.15427687  0.26100041    -0.79400
Co209      Co  0.06278505  0.20063853  0.20058306     1.51500
Co210      Co  0.95038023  0.19513400  0.20371766     1.51700
Co211      Co  0.01059721  0.12974414  0.21876716     1.51600
Co212      Co  0.00294835  0.21387474  0.11920964     1.51500
O213        O  0.00669133  0.18117470  0.17569312    -1.41300
C214        C  0.05259641  0.28144201  0.16353190     1.10300
C215        C  0.93190494  0.17566099  0.27590874     1.10400
C216        C  0.08624507  0.18739981  0.27167405     1.10300
C217        C  0.95377404  0.27753194  0.17391349     1.10300
O218        O  0.15174824  0.90070333  0.21196083    -0.79300
O219        O  0.20733808  0.06298900  0.12986570    -0.79400
O220        O  0.11743209  0.03807630  0.17088936    -0.79400
O221        O  0.18203582  0.95317504  0.11134614    -0.79300
O222        O  0.16227792  0.08567675  0.19732857    -0.79400
O223        O  0.21190014  0.90278450  0.15232333    -0.79400
O224        O  0.23820718  0.01641817  0.08424075    -0.79300
O225        O  0.10957754  0.94745757  0.17822694    -0.79400
C226        C  0.11700075  0.90955364  0.19180287     1.10400
C227        C  0.22111571  0.05308863  0.09156047     1.10200
C228        C  0.12565719  0.07659143  0.18134180     1.10400
C229        C  0.19249486  0.91393911  0.11806083     1.10300
O230        O  0.27131571  0.94490416  0.20945504    -0.79300
O231        O  0.21436345  0.04329842  0.26131985    -0.79400
O232        O  0.13676065  0.95507252  0.26694099    -0.79300
O233        O  0.27254609  0.03272667  0.16327692    -0.79300
O234        O  0.25506669  0.09351648  0.19735285    -0.79400
O235        O  0.20730924  0.94548820  0.27087601    -0.79300
O236        O  0.27057547  0.95351364  0.13950510    -0.79300
O237        O  0.14338796  0.04010178  0.25988667    -0.79400
Co238      Co  0.21040229  0.92752948  0.21104349     1.51500
Co239      Co  0.21449624  0.04687967  0.19635405     1.51700
Co240      Co  0.12967635  0.99476916  0.21609606     1.51600
Co241      Co  0.22097519  0.99571238  0.13887110     1.51500
O242        O  0.19056322  0.98731246  0.19393949    -1.41300
C243        C  0.29072301  0.94331683  0.17367344     1.10300
C244        C  0.17792873  0.04776159  0.28042414     1.10400
C245        C  0.17065180  0.94584481  0.28840182     1.10300
C246        C  0.28352472  0.06968417  0.17909828     1.10300
O247        O  0.22409883  0.07585121  0.01794265    -0.79300
O248        O  0.11340668  0.18245458  0.95243198    -0.79400
O249        O  0.16128335  0.19486645  0.08950728    -0.79400
O250        O  0.21054460  0.15299564  0.90205007    -0.79300
O251        O  0.11799147  0.17245442  0.04002550    -0.79400
O252        O  0.17647313  0.11252068  0.94903136    -0.79400
O253        O  0.15358548  0.21692626  0.90592897    -0.79300
O254        O  0.21611894  0.12681984  0.06987376    -0.79400
C255        C  0.21903374  0.08628604  0.05770466     1.10400
C256        C  0.11965070  0.19591670  0.91454185     1.10200
C257        C  0.12488165  0.18099262  0.07880004     1.10400
C258        C  0.19038539  0.11869174  0.91088520     1.10300
O259        O  0.26835593  0.13143651  0.95122707    -0.79300
O260        O  0.14898778  0.26343497  0.04830099    -0.79400
O261        O  0.27717061  0.20217745  0.04170772    -0.79300
O262        O  0.21417736  0.27062411  0.95062938    -0.79300
O263        O  0.14401459  0.27040227  0.96255242    -0.79400
O264        O  0.27663696  0.13659792  0.02447768    -0.79300
O265        O  0.27401564  0.20232330  0.94539255    -0.79300
O266        O  0.21908654  0.25753143  0.05521899    -0.79400
Co267      Co  0.21837097  0.13141380  0.99357821     1.51500
Co268      Co  0.13521751  0.21888054  0.00040993     1.51700
Co269      Co  0.21734691  0.19500853  0.05797032     1.51600
Co270      Co  0.21305481  0.21053542  0.93116575     1.51500
O271        O  0.19700148  0.19269352  0.99341806    -1.41300
C272        C  0.29010539  0.16483813  0.94076033     1.10300
C273        C  0.18527805  0.27930380  0.05957462     1.10400
C274        C  0.29678763  0.16771601  0.03949241     1.10300
C275        C  0.17824062  0.29018979  0.95242107     1.10300
O276        O  0.86017482  0.08115862  0.20593384    -0.79300
O277        O  0.79184436  0.90278042  0.15304313    -0.79400
O278        O  0.89288842  0.94183598  0.17482323    -0.79400
O279        O  0.82649903  0.03750533  0.10676563    -0.79300
O280        O  0.85061999  0.89890311  0.21110361    -0.79400
O281        O  0.79746634  0.08561973  0.14973708    -0.79400
O282        O  0.82618608  0.94738683  0.11081434    -0.79300
O283        O  0.89987967  0.03180665  0.17373245    -0.79400
C284        C  0.89485793  0.07013353  0.18659964     1.10400
C285        C  0.81310039  0.90996126  0.11864515     1.10200
C286        C  0.88480582  0.90481365  0.18944670     1.10400
C287        C  0.81453765  0.07607781  0.11367252     1.10300
O288        O  0.73793078  0.04420081  0.20913955    -0.79300
O289        O  0.79835984  0.94916031  0.27199017    -0.79400
O290        O  0.87330165  0.03205822  0.26379962    -0.79300
O291        O  0.73459640  0.95220405  0.14199593    -0.79300
O292        O  0.73549265  0.95462332  0.21197305    -0.79400
O293        O  0.80340634  0.03968187  0.26883186    -0.79300
O294        O  0.73861485  0.03708580  0.13901518    -0.79300
O295        O  0.86850594  0.94824686  0.26650864    -0.79400
Co296      Co  0.80012436  0.05680982  0.20808281     1.51500
Co297      Co  0.79456252  0.93224291  0.21126880     1.51700
Co298      Co  0.87880531  0.98870613  0.21559417     1.51600
Co299      Co  0.78572092  0.99318674  0.12903755     1.51500
O300        O  0.81542613  0.99310051  0.19042031    -1.41300
C301        C  0.71856118  0.04626750  0.17350350     1.10300
C302        C  0.83459433  0.94282891  0.28908602     1.10400
C303        C  0.84003787  0.04091176  0.28614955     1.10300
C304        C  0.71536606  0.94670302  0.17810541     1.10300
O305        O  0.79196133  0.14426031  0.08773165    -0.79300
O306        O  0.85169510  0.20578118  0.90600274    -0.79400
O307        O  0.82563698  0.10633499  0.94978559    -0.79400
O308        O  0.89150459  0.16873910  0.04325100    -0.79300
O309        O  0.79176125  0.14895941  0.90477303    -0.79400
O310        O  0.85014589  0.20308568  0.08973023    -0.79400
O311        O  0.89318412  0.16979864  0.95080611    -0.79300
O312        O  0.82424720  0.10209375  0.04052549    -0.79400
C313        C  0.81216664  0.10935795  0.07899904     1.10400
C314        C  0.88594587  0.18413955  0.91325370     1.10200
C315        C  0.81275572  0.11439012  0.91211757     1.10400
C316        C  0.88466058  0.18256747  0.08125871     1.10300
O317        O  0.79581445  0.26454073  0.04332964    -0.79300
O318        O  0.73346461  0.20694447  0.95378761    -0.79400
O319        O  0.73593371  0.13238831  0.03704545    -0.79300
O320        O  0.86694236  0.26144052  0.95607516    -0.79300
O321        O  0.79665286  0.26617604  0.95390149    -0.79400
O322        O  0.73233350  0.20263308  0.04223976    -0.79300
O323        O  0.86593810  0.25816367  0.03939270    -0.79300
O324        O  0.73355543  0.13663040  0.95249028    -0.79400
Co325      Co  0.79291913  0.20327186  0.05974586     1.51500
Co326      Co  0.79376044  0.20628806  0.93540853     1.51700
Co327      Co  0.78397624  0.12365276  0.99484102     1.51600
Co328      Co  0.87493108  0.21028899  0.99715557     1.51500
O329        O  0.81197859  0.18536645  0.99703761    -1.41300
C330        C  0.83265896  0.28114825  0.04642969     1.10300
C331        C  0.71395204  0.17265290  0.94612822     1.10400
C332        C  0.71459457  0.16645447  0.04518141     1.10300
C333        C  0.83272261  0.28369915  0.94963297     1.10300
O334        O  0.09490660  0.85013664  0.79186370    -0.79300
O335        O  0.91426867  0.78533279  0.85032898    -0.79400
O336        O  0.95685149  0.88508281  0.82395588    -0.79400
O337        O  0.04998503  0.82640856  0.89251515    -0.79300
O338        O  0.91304023  0.84222968  0.79001739    -0.79400
O339        O  0.09730375  0.79280556  0.85162113    -0.79400
O340        O  0.95756884  0.82237081  0.89187532    -0.79300
O341        O  0.04646486  0.89170114  0.82308803    -0.79400
C342        C  0.08511100  0.88483589  0.81134096     1.10400
C343        C  0.92053652  0.80697658  0.88431649     1.10200
C344        C  0.91978657  0.87728553  0.81013085     1.10400
C345        C  0.08839257  0.81373437  0.88570993     1.10300
O346        O  0.05383187  0.73088078  0.79665489    -0.79300
O347        O  0.96452094  0.78411608  0.73348975    -0.79400
O348        O  0.04485490  0.86158729  0.73501625    -0.79300
O349        O  0.96679765  0.73215073  0.86846941    -0.79300
O350        O  0.96490701  0.72458725  0.79871780    -0.79400
O351        O  0.05249959  0.79151145  0.73267746    -0.79300
O352        O  0.05017955  0.73537603  0.86706997    -0.79300
O353        O  0.96064410  0.85442615  0.73209944    -0.79400
Co354      Co  0.06883244  0.79143828  0.79362312     1.51500
Co355      Co  0.94498029  0.78487171  0.79341410     1.51700
Co356      Co  0.00210461  0.86902300  0.78268809     1.51600
Co357      Co  0.00612541  0.78331162  0.87538910     1.51500
O358        O  0.00564588  0.80765414  0.81187439    -1.41300
C359        C  0.05688641  0.71340668  0.83307739     1.10300
C360        C  0.95548599  0.81804776  0.71327706     1.10400
C361        C  0.05403032  0.82764271  0.71427259     1.10300
C362        C  0.96073035  0.70841686  0.83575267     1.10300
O363        O  0.89692240  0.04174640  0.82063661    -0.79300
O364        O  0.82963032  0.95280535  0.88954275    -0.79400
O365        O  0.79452110  0.08924761  0.84345887    -0.79400
O366        O  0.85247137  0.90361144  0.78851187    -0.79300
O367        O  0.82924331  0.04388320  0.88547149    -0.79400
O368        O  0.89374171  0.94900819  0.82301786    -0.79400
O369        O  0.79564292  0.90646625  0.84892386    -0.79300
O370        O  0.85470369  0.08731304  0.78588296    -0.79400
C371        C  0.88978667  0.07934373  0.80570288     1.10400
C372        C  0.81605283  0.91502850  0.88342580     1.10200
C373        C  0.81470933  0.08141670  0.87821153     1.10400
C374        C  0.88651576  0.91119833  0.80943819     1.10300
O375        O  0.86726198  0.95296744  0.73288164    -0.79300
O376        O  0.73927455  0.03957892  0.85875343    -0.79400
O377        O  0.80005960  0.04060171  0.72554608    -0.79300
O378        O  0.73481825  0.95212741  0.79213128    -0.79300
O379        O  0.73875465  0.95619826  0.86228086    -0.79400
O380        O  0.87017231  0.03598612  0.73170112    -0.79300
O381        O  0.79695734  0.95060971  0.72866194    -0.79300
O382        O  0.73536957  0.04201232  0.78843346    -0.79400
Co383      Co  0.87757979  0.99493738  0.78140030     1.51500
Co384      Co  0.78846106  0.99797857  0.86959654     1.51700
Co385      Co  0.79649608  0.05882788  0.78635838     1.51600
Co386      Co  0.79539332  0.93416035  0.78984210     1.51500
O387        O  0.81479632  0.99660078  0.80706064    -1.41300
C388        C  0.83335358  0.94713447  0.71072848     1.10300
C389        C  0.71726131  0.04566967  0.82477649     1.10400
C390        C  0.83707887  0.04274775  0.70862763     1.10300
C391        C  0.71703540  0.94861528  0.82841005     1.10300
O392        O  0.83012787  0.88330978  0.04819666    -0.79300
O393        O  0.89280614  0.81837412  0.95495771    -0.79400
O394        O  0.85330126  0.78166706  0.09048251    -0.79400
O395        O  0.79419911  0.84821224  0.90986505    -0.79300
O396        O  0.89582637  0.81414682  0.04441125    -0.79400
O397        O  0.82952683  0.88827629  0.95574851    -0.79400
O398        O  0.85104837  0.78699240  0.90829256    -0.79300
O399        O  0.79456797  0.84183368  0.09296740    -0.79400
C400        C  0.81520455  0.87612672  0.08556736     1.10400
C401        C  0.88592147  0.80646536  0.91694386     1.10200
C402        C  0.88864103  0.80051404  0.08212692     1.10400
C403        C  0.81556736  0.88189497  0.91785564     1.10300
O404        O  0.73873323  0.86491776  0.96031090    -0.79300
O405        O  0.86572602  0.72549357  0.03905425    -0.79400
O406        O  0.73334774  0.78980653  0.04561171    -0.79300
O407        O  0.79100379  0.73010576  0.95582109    -0.79300
O408        O  0.86138426  0.72738589  0.95469528    -0.79400
O409        O  0.73933365  0.86008047  0.04346811    -0.79300
O410        O  0.73229844  0.79507969  0.95594174    -0.79300
O411        O  0.79546962  0.72363970  0.04508401    -0.79400
Co412      Co  0.78872825  0.86943508  0.00188625     1.51500
Co413      Co  0.87462179  0.77561345  0.99824143     1.51700
Co414      Co  0.79457909  0.78491340  0.06247267     1.51600
Co415      Co  0.79276629  0.79014986  0.93816261     1.51500
O416        O  0.81310852  0.80554648  0.00041292    -1.41300
C417        C  0.71564076  0.83212530  0.95313568     1.10300
C418        C  0.83165173  0.70471286  0.04764392     1.10400
C419        C  0.71624368  0.82684954  0.04911666     1.10300
C420        C  0.82505548  0.70943716  0.94842768     1.10300
C421        C  0.92082136  0.60697858  0.89011858     0.24400
C422        C  0.91129586  0.57971570  0.85516130    -0.23700
C423        C  0.92219960  0.59400499  0.81342123     0.19300
C424        C  0.94020924  0.63491673  0.80689455     0.24300
C425        C  0.94630177  0.66313107  0.84184931    -0.23700
C426        C  0.93649787  0.64824139  0.88349185     0.19200
F427        F  0.94011185  0.67425920  0.91841551    -0.13600
F428        F  0.91017834  0.59647130  0.93088188    -0.16000
F429        F  0.94988198  0.64744756  0.76615262    -0.16000
F430        F  0.91181488  0.57003548  0.77858159    -0.13600
C431        C  0.82772094  0.61684773  0.86923398     0.24400
C432        C  0.82411377  0.58123077  0.89752879    -0.23700
C433        C  0.80335645  0.59058484  0.93709701     0.19300
C434        C  0.80273141  0.63264274  0.95322606     0.24300
C435        C  0.82172855  0.66598862  0.92977494    -0.23700
C436        C  0.83002221  0.65881947  0.88595255     0.19200
F437        F  0.84035350  0.69210040  0.85959040    -0.13600
F438        F  0.83247069  0.61074163  0.82623497    -0.16000
F439        F  0.78175267  0.64099067  0.99066275    -0.16000
F440        F  0.77775515  0.56189241  0.95687703    -0.13600
C441        C  0.94720474  0.35309545  0.86904673     0.24400
C442        C  0.93421167  0.33073394  0.83241288    -0.23700
C443        C  0.90754530  0.35222349  0.80234672     0.19300
C444        C  0.89314221  0.39475683  0.81028828     0.24300
C445        C  0.90721126  0.41713111  0.84693886    -0.23700
C446        C  0.93689838  0.39625917  0.87439466     0.19200
F447        F  0.95414127  0.41597494  0.90876459    -0.13600
F448        F  0.96835344  0.33267969  0.90133665    -0.16000
F449        F  0.86463233  0.41367542  0.78292425    -0.16000
F450        F  0.89300231  0.33120807  0.76706531    -0.13600
C451        C  0.86829657  0.39942726  0.94346199     0.24400
C452        C  0.84116444  0.41696637  0.91156798    -0.23700
C453        C  0.80838764  0.39112605  0.89473675     0.19300
C454        C  0.80421055  0.34813947  0.90842156     0.24300
C455        C  0.83486131  0.32959629  0.93663393    -0.23700
C456        C  0.86758987  0.35558229  0.95274099     0.19200
F457        F  0.90039418  0.33823079  0.97576071    -0.13600
F458        F  0.89825666  0.42375151  0.96317288    -0.16000
F459        F  0.77214537  0.32390419  0.89176365    -0.16000
F460        F  0.78137138  0.40712357  0.86421324    -0.13600
C461        C  0.89797248  0.59655438  0.18929812     0.24400
C462        C  0.91563614  0.57086359  0.15649252    -0.23700
C463        C  0.94621222  0.58819945  0.12839120     0.19300
C464        C  0.95610364  0.63169210  0.13015272     0.24300
C465        C  0.93951375  0.65748885  0.16365534    -0.23700
C466        C  0.91067955  0.63945925  0.19360425     0.19200
F467        F  0.89388875  0.66364507  0.22606281    -0.13600
F468        F  0.86768062  0.58034382  0.21626126    -0.16000
F469        F  0.98483784  0.64759917  0.10130676    -0.16000
F470        F  0.96536170  0.56309661  0.09804018    -0.13600
C471        C  0.81736161  0.59814217  0.10862436     0.24400
C472        C  0.85135140  0.57292095  0.09143097    -0.23700
C473        C  0.87664711  0.59181483  0.05845200     0.19300
C474        C  0.86893793  0.63362060  0.04398539     0.24300
C475        C  0.83580269  0.65890201  0.06160908    -0.23700
C476        C  0.80950364  0.64061972  0.09377362     0.19200
F477        F  0.77790876  0.66464174  0.11259003    -0.13600
F478        F  0.79315295  0.58241833  0.14139477    -0.16000
F479        F  0.89508657  0.64978850  0.01286822    -0.16000
F480        F  0.91162303  0.57206218  0.04167864    -0.13600
C481        C  0.94307377  0.39729619  0.19420569     0.24400
C482        C  0.90324923  0.40707936  0.17400391    -0.23700
C483        C  0.87464834  0.37179857  0.17254350     0.19300
C484        C  0.89082599  0.32928820  0.17065633     0.24300
C485        C  0.93467889  0.32123266  0.17841625    -0.23700
C486        C  0.95863819  0.35477770  0.19581303     0.19200
F487        F  0.99550122  0.34602420  0.21725417    -0.13600
F488        F  0.96288067  0.42579037  0.21982716    -0.16000
F489        F  0.86366790  0.29626777  0.16261957    -0.16000
F490        F  0.83142574  0.37854729  0.17265290    -0.13600
C491        C  0.88064700  0.34258601  0.06311255     0.24400
C492        C  0.83855778  0.32631157  0.06017558    -0.23700
C493        C  0.80364280  0.35296512  0.07251361     0.19300
C494        C  0.81114858  0.39429014  0.08890420     0.24300
C495        C  0.85346651  0.41001523  0.09182024    -0.23700
C496        C  0.88762867  0.38438407  0.07643768     0.19200
F497        F  0.92878375  0.39775167  0.07839458    -0.13600
F498        F  0.91598264  0.31766284  0.05480770    -0.16000
F499        F  0.77786321  0.41669481  0.10674173    -0.16000
F500        F  0.76266457  0.33811229  0.07174320    -0.13600
C501        C  0.80150253  0.48269878  0.02719664     0.24400
C502        C  0.84176608  0.48939071  0.04731570    -0.23700
C503        C  0.87729961  0.49612032  0.02116811     0.19300
C504        C  0.87192226  0.50739795  0.97886834     0.24300
C505        C  0.83410466  0.49814909  0.95695197    -0.23700
C506        C  0.79887652  0.48289834  0.98153250     0.19200
F507        F  0.76156218  0.47205834  0.96183716    -0.13600
F508        F  0.76548131  0.47613112  0.05089437    -0.16000
F509        F  0.90514588  0.52566847  0.95908439    -0.16000
F510        F  0.91774630  0.49464756  0.03718055    -0.13600
C511        C  0.04859801  0.62478409  0.18064785     0.24400
C512        C  0.07646774  0.65912823  0.18195617    -0.23700
C513        C  0.12078126  0.64957725  0.18503068     0.19300
C514        C  0.13522796  0.60623621  0.18200898     0.24300
C515        C  0.10655450  0.57364954  0.16790919    -0.23700
C516        C  0.06283477  0.58544438  0.16518867     0.19200
F517        F  0.03528827  0.56409224  0.13989121    -0.13600
F518        F  0.00946962  0.62781101  0.19906235    -0.16000
F519        F  0.17769283  0.59706890  0.18784338    -0.16000
F520        F  0.14957268  0.68154176  0.19133188    -0.13600
C521        C  0.12929428  0.60121804  0.07799469     0.24400
C522        C  0.16453987  0.57826479  0.09563533    -0.23700
C523        C  0.20550779  0.59716662  0.09327809     0.19300
C524        C  0.21050303  0.63892348  0.07605848     0.24300
C525        C  0.17432676  0.66317183  0.06197149    -0.23700
C526        C  0.13359123  0.64357140  0.06394677     0.19200
F527        F  0.09699056  0.66569656  0.05397948    -0.13600
F528        F  0.08973189  0.58330344  0.07574624    -0.16000
F529        F  0.25050423  0.65614620  0.07495431    -0.16000
F530        F  0.24045401  0.57575087  0.10894032    -0.13600
C531        C  0.07498403  0.34403586  0.11789603     0.24400
C532        C  0.06976473  0.32607758  0.15939129    -0.23700
C533        C  0.08240969  0.35077707  0.19526521     0.19300
C534        C  0.09816955  0.39277678  0.18966416     0.24300
C535        C  0.10445017  0.40973214  0.14805303    -0.23700
C536        C  0.09253374  0.38468902  0.11239231     0.19200
F537        F  0.09938732  0.39896942  0.07162623    -0.13600
F538        F  0.06452946  0.32184976  0.08181642    -0.16000
F539        F  0.10974228  0.41596754  0.22472153    -0.16000
F540        F  0.07977256  0.33436868  0.23571521    -0.13600
C541        C  0.18949725  0.37835429  0.13306879     0.24400
C542        C  0.18655360  0.41211142  0.10202203    -0.23700
C543        C  0.19802916  0.39949645  0.05945647     0.19300
C544        C  0.20362063  0.35615901  0.04877133     0.24300
C545        C  0.18938698  0.32398525  0.07635081    -0.23700
C546        C  0.18659120  0.33470359  0.12019556     0.19200
F547        F  0.18144317  0.30342447  0.15027553    -0.13600
F548        F  0.18994824  0.38781587  0.17571251    -0.11200
F549        F  0.22365761  0.34570976  0.01146201    -0.16000
F550        F  0.20315701  0.42670027  0.02657678    -0.13600
C551        C  0.03021846  0.47282273  0.12749214     0.24400
C552        C  0.05528183  0.48664353  0.16250017    -0.23700
C553        C  0.03280836  0.50066288  0.19985927     0.19300
C554        C  0.98690580  0.50390344  0.19980212     0.24300
C555        C  0.96283971  0.48896182  0.16410550    -0.23700
C556        C  0.98579204  0.47410363  0.12841187     0.19200
F557        F  0.96519140  0.46421748  0.09182692    -0.13600
F558        F  0.04824923  0.45997518  0.09016784    -0.16000
F559        F  0.96607360  0.51984079  0.23485083    -0.16000
F560        F  0.05511714  0.51410097  0.23475525    -0.13600
C561        C  0.05652864  0.59902575  0.87125794     0.24400
C562        C  0.08911869  0.57998556  0.84586729    -0.23700
C563        C  0.10831346  0.60431482  0.81306398     0.19300
C564        C  0.09655711  0.64760508  0.80732679     0.24300
C565        C  0.06767318  0.66746912  0.83631612    -0.23700
C566        C  0.04876406  0.64294745  0.86886716     0.19200
F567        F  0.02451566  0.66181697  0.90005095    -0.13600
F568        F  0.03541509  0.57666997  0.90198643    -0.16000
F569        F  0.11608051  0.67090542  0.77597421    -0.16000
F570        F  0.14001088  0.58675628  0.78829901    -0.13600
C571        C  0.13413998  0.64818799  0.95040299     0.24400
C572        C  0.17186583  0.66919696  0.93779728    -0.23700
C573        C  0.20216121  0.64684862  0.91209008     0.19300
C574        C  0.19322357  0.60494230  0.89758395     0.24300
C575        C  0.15508203  0.58443215  0.91036571    -0.23700
C576        C  0.12729567  0.60580089  0.93922593     0.19200
F577        F  0.09198668  0.58681556  0.95565385    -0.13600
F578        F  0.10256326  0.66905758  0.97257857    -0.16000
F579        F  0.22115154  0.58476972  0.87042179    -0.16000
F580        F  0.23887875  0.66631971  0.89894536    -0.13600
C581        C  0.07974215  0.35960219  0.80249767     0.24400
C582        C  0.06177108  0.33463904  0.83599254    -0.23700
C583        C  0.05915948  0.35270268  0.87735018     0.19300
C584        C  0.06989524  0.39524436  0.88405551     0.24300
C585        C  0.09274041  0.41836966  0.85276702    -0.23700
C586        C  0.09654783  0.40063592  0.81130480     0.19200
F587        F  0.11649747  0.42297744  0.77954285    -0.13600
F588        F  0.08289859  0.34373564  0.76192036    -0.16000
F589        F  0.05739251  0.41342775  0.92152051    -0.16000
F590        F  0.04718683  0.32921917  0.91220134    -0.13600
C591        C  0.14012001  0.40505590  0.95309855     0.24400
C592        C  0.16075166  0.42238861  0.91657167    -0.23700
C593        C  0.19099884  0.39670823  0.89435465     0.19300
C594        C  0.19855549  0.35390895  0.90697160     0.24300
C595        C  0.17451079  0.33595886  0.94082134    -0.23700
C596        C  0.14536265  0.36198399  0.96366048     0.19200
F597        F  0.12162278  0.34565963  0.99657421    -0.13600
F598        F  0.11105024  0.42775565  0.97642562    -0.16000
F599        F  0.22695684  0.32927329  0.88429298    -0.16000
F600        F  0.21147752  0.41247875  0.85913008    -0.13600
C601        C  0.13549321  0.50427176  0.03024545     0.24400
C602        C  0.17573822  0.50179843  0.04969947    -0.23700
C603        C  0.21283381  0.50842076  0.02387458     0.19300
C604        C  0.20859691  0.50899234  0.97830311     0.24300
C605        C  0.16718287  0.50702432  0.95972329    -0.23700
C606        C  0.13143545  0.50858991  0.98683889     0.19200
F607        F  0.09115174  0.50974669  0.97127635    -0.13600
F608        F  0.09902132  0.50358217  0.05377286    -0.16000
F609        F  0.24415106  0.51029271  0.95288078    -0.16000
F610        F  0.25249055  0.50923145  0.04207666    -0.13600
C611        C  0.97763915  0.49619892  0.88108680     0.24400
C612        C  0.95394762  0.49786128  0.84327447    -0.23700
C613        C  0.97651308  0.49799132  0.80362137     0.19300
C614        C  0.02232808  0.49883258  0.80343798     0.24300
C615        C  0.04484729  0.49739461  0.84282122    -0.23700
C616        C  0.02137642  0.49430588  0.88074101     0.19200
F617        F  0.04100292  0.49187527  0.91907554    -0.13600
F618        F  0.95860750  0.49380678  0.91972492    -0.16000
F619        F  0.04422048  0.50052864  0.76565567    -0.16000
F620        F  0.95473313  0.49697243  0.76587128    -0.13600
C621        C  0.60974573  0.89338942  0.80789881     0.24400
C622        C  0.58453915  0.91058003  0.84149397    -0.23700
C623        C  0.60236857  0.94258000  0.86772374     0.19300
C624        C  0.64606439  0.95142209  0.86561068     0.24300
C625        C  0.67137308  0.93551769  0.83177201    -0.23700
C626        C  0.65251574  0.90702718  0.80202974     0.19200
F627        F  0.67635153  0.88986739  0.76947843    -0.13600
F628        F  0.59341883  0.86261683  0.78178470    -0.16000
F629        F  0.66400148  0.97360077  0.89829788    -0.16000
F630        F  0.57837750  0.96300159  0.89799657    -0.13600
C631        C  0.60694937  0.81552637  0.89990139     0.24400
C632        C  0.58430408  0.85248008  0.91344848    -0.23700
C633        C  0.60396405  0.88014014  0.94326649     0.19300
C634        C  0.64697389  0.87435091  0.95435198     0.24300
C635        C  0.66994182  0.83769864  0.94076086    -0.23700
C636        C  0.64907842  0.80750590  0.91438255     0.19200
F637        F  0.67033268  0.77176177  0.90029107    -0.13600
F638        F  0.58861221  0.78787758  0.87172071    -0.16000
F639        F  0.66651705  0.90580642  0.97706926    -0.16000
F640        F  0.58297171  0.91471002  0.95979773    -0.13600
C641        C  0.41113026  0.93356613  0.80286627     0.24400
C642        C  0.41997216  0.89603070  0.82745318    -0.23700
C643        C  0.38385859  0.86907233  0.83320302     0.19300
C644        C  0.34191563  0.88679109  0.83377247     0.24300
C645        C  0.33507170  0.92977583  0.82126330    -0.23700
C646        C  0.36913749  0.95060473  0.80049291     0.19200
F647        F  0.36153777  0.98607171  0.77599944    -0.13600
F648        F  0.43994603  0.94900443  0.77448594    -0.16000
F649        F  0.30813374  0.86176662  0.84524303    -0.16000
F650        F  0.38919267  0.82600784  0.83868880    -0.13600
C651        C  0.39617798  0.88955676  0.92647880     0.24400
C652        C  0.42343936  0.85510405  0.91519577    -0.23700
C653        C  0.41002003  0.81264405  0.92353359     0.19300
C654        C  0.36843784  0.80488389  0.93932405     0.24300
C655        C  0.33952519  0.83946941  0.94610877    -0.23700
C656        C  0.35443513  0.88196584  0.94028699     0.19200
F657        F  0.32806386  0.91681320  0.94552273    -0.13600
F658        F  0.40793924  0.93084742  0.91941047    -0.16000
F659        F  0.35587492  0.76358123  0.94561443    -0.16000
F660        F  0.43525238  0.77866799  0.91180493    -0.13600
C661        C  0.62621097  0.86369659  0.17337822     0.24400
C662        C  0.58909245  0.88928866  0.18151865    -0.23700
C663        C  0.59776153  0.92543492  0.20774557     0.19300
C664        C  0.63863266  0.94516819  0.20585342     0.24300
C665        C  0.67229271  0.92613002  0.18174988    -0.23700
C666        C  0.66701642  0.88287465  0.16995089     0.19200
F667        F  0.70148795  0.85877809  0.15715592    -0.13600
F668        F  0.62307712  0.82034426  0.16978629    -0.16000
F669        F  0.64558555  0.98200587  0.22812211    -0.16000
F670        F  0.56831713  0.94005033  0.23667641    -0.13600
C671        C  0.61000825  0.88090519  0.07812774     0.24400
C672        C  0.58549700  0.84655197  0.09392930    -0.23700
C673        C  0.60122689  0.80430842  0.08713705     0.19300
C674        C  0.64311487  0.79734872  0.07079486     0.24300
C675        C  0.67005237  0.83259958  0.06149227    -0.23700
C676        C  0.65250022  0.87449357  0.06520067     0.19200
F677        F  0.67686300  0.91000039  0.05852772    -0.13600
F678        F  0.59355792  0.92118847  0.07601025    -0.16000
F679        F  0.65796996  0.75627753  0.06659231    -0.16000
F680        F  0.57756977  0.77001610  0.09983898    -0.13600
C681        C  0.40715070  0.93715270  0.13967515     0.24400
C682        C  0.42327335  0.90392247  0.16565367    -0.23700
C683        C  0.39634488  0.88502049  0.19659513     0.19300
C684        C  0.35354637  0.89936544  0.20097165     0.24300
C685        C  0.33638722  0.92968516  0.17162503    -0.23700
C686        C  0.36336557  0.94657985  0.13967213     0.19200
F687        F  0.34705817  0.96930715  0.10631596    -0.13600
F688        F  0.43348754  0.95770658  0.11162316    -0.16000
F689        F  0.32817074  0.88135036  0.23161961    -0.16000
F690        F  0.41144999  0.85270904  0.22208727    -0.13600
C691        C  0.39828840  0.80988037  0.11249377     0.24400
C692        C  0.42339202  0.84434615  0.09741609    -0.23700
C693        C  0.40470269  0.87241556  0.06664092     0.19300
C694        C  0.36186550  0.86825570  0.05410222     0.24300
C695        C  0.33712141  0.83349652  0.06812667    -0.23700
C696        C  0.35591646  0.80389622  0.09728766     0.19200
F697        F  0.33230712  0.77099890  0.11341396    -0.13600
F698        F  0.41419051  0.78308483  0.14329469    -0.16000
F699        F  0.34407144  0.89971714  0.02940072    -0.16000
F700        F  0.42616675  0.90662615  0.05095110    -0.13600
C701        C  0.50335153  0.88640294  0.98667835     0.24400
C702        C  0.50334694  0.84942448  0.96073610    -0.23700
C703        C  0.50502422  0.80873408  0.98103675     0.19300
C704        C  0.50464368  0.80587934  0.02644282     0.24300
C705        C  0.50549946  0.84374851  0.05129903    -0.23700
C706        C  0.50705155  0.88357896  0.03070278     0.19200
F707        F  0.50941979  0.92064124  0.05388818    -0.13600
F708        F  0.50166345  0.92624387  0.96988082    -0.16000
F709        F  0.50414835  0.76672731  0.04586315    -0.16000
F710        F  0.50732324  0.77221566  0.95720559    -0.13600
C711        C  0.65209699  0.05976687  0.87023083     0.24400
C712        C  0.67114577  0.05852795  0.82904054    -0.23700
C713        C  0.64571967  0.07059365  0.79327284     0.19300
C714        C  0.60348177  0.08645033  0.79940579     0.24300
C715        C  0.58570204  0.08890559  0.84115307    -0.23700
C716        C  0.60891869  0.07051261  0.87520703     0.19200
F717        F  0.59025602  0.06345866  0.91375465    -0.13600
F718        F  0.67541644  0.05243475  0.90650727    -0.16000
F719        F  0.58173502  0.10337862  0.76541552    -0.16000
F720        F  0.66256145  0.07019376  0.75291115    -0.13600
C721        C  0.63613102  0.19759390  0.94580834     0.24400
C722        C  0.67056567  0.17549508  0.92576788    -0.23700
C723        C  0.66519968  0.16510862  0.88216264     0.19300
C724        C  0.62403546  0.16801991  0.86338012     0.24300
C725        C  0.58695656  0.17317229  0.88949355    -0.23700
C726        C  0.59473166  0.19793449  0.92681927     0.19200
F727        F  0.56417858  0.22518869  0.94257470    -0.13600
F728        F  0.64293657  0.21987417  0.98265252    -0.16000
F729        F  0.62051134  0.16800064  0.81992775    -0.16000
F730        F  0.69982636  0.15464719  0.85734633    -0.13600
C731        C  0.39787882  0.10752076  0.80551899     0.24400
C732        C  0.42332004  0.08915120  0.83846341    -0.23700
C733        C  0.40478780  0.05570368  0.86329722     0.19300
C734        C  0.36265401  0.04255458  0.85671278     0.24300
C735        C  0.33711302  0.06148761  0.82476230    -0.23700
C736        C  0.35524069  0.09369255  0.79853331     0.19200
F737        F  0.33082145  0.11380881  0.76823692    -0.13600
F738        F  0.41347871  0.14066061  0.78180264    -0.16000
F739        F  0.34636088  0.01164334  0.88296143    -0.16000
F740        F  0.42486287  0.03797559  0.89744329    -0.13600
C741        C  0.35987148  0.12499428  0.93818719     0.24400
C742        C  0.33476305  0.16025769  0.92503528    -0.23700
C743        C  0.35350274  0.19165368  0.89820930     0.19300
C744        C  0.39649228  0.18693338  0.88497067     0.24300
C745        C  0.42225425  0.15385666  0.90247700    -0.23700
C746        C  0.40422462  0.12521181  0.93211473     0.19200
F747        F  0.42915905  0.09508314  0.95195693    -0.13600
F748        F  0.34113740  0.08879469  0.95323678    -0.16000
F749        F  0.41298414  0.21429787  0.85520324    -0.16000
F750        F  0.32949872  0.22484647  0.88232406    -0.13600
C751        C  0.50359983  0.02143225  0.87164972     0.24400
C752        C  0.50763592  0.04484777  0.83376155    -0.23700
C753        C  0.51485385  0.02245317  0.79485783     0.19300
C754        C  0.51622493  0.97686696  0.79517829     0.24300
C755        C  0.50278622  0.95446166  0.83247458    -0.23700
C756        C  0.49522659  0.97814820  0.86984607     0.19200
F757        F  0.48179986  0.95886779  0.90582545    -0.13600
F758        F  0.50387434  0.04135947  0.91064653    -0.16000
F759        F  0.52682909  0.95495857  0.75881836    -0.16000
F760        F  0.52084334  0.04413116  0.75746117    -0.13600
C761        C  0.61182257  0.10647997  0.19013478     0.24400
C762        C  0.58698364  0.08849907  0.15697905    -0.23700
C763        C  0.60584234  0.05595995  0.13113345     0.19300
C764        C  0.64792625  0.04221357  0.13741717     0.24300
C765        C  0.67289905  0.05991626  0.17031441    -0.23700
C766        C  0.65443306  0.09182868  0.19718301     0.19200
F767        F  0.67818640  0.11020410  0.22871573    -0.13600
F768        F  0.59518208  0.13861714  0.21486692    -0.16000
F769        F  0.66409617  0.01102642  0.11112741    -0.16000
F770        F  0.58221162  0.03571024  0.10077703    -0.13600
C771        C  0.64672125  0.12650159  0.04605456     0.24400
C772        C  0.67000481  0.16218939  0.06007914    -0.23700
C773        C  0.65125829  0.19096574  0.09000084     0.19300
C774        C  0.60983131  0.18323851  0.10635408     0.24300
C775        C  0.58677129  0.14723518  0.09225938    -0.23700
C776        C  0.60591158  0.11904351  0.06192695     0.19200
F777        F  0.58280068  0.08701707  0.04370340    -0.13600
F778        F  0.66286699  0.09929510  0.01565404    -0.16000
F779        F  0.59229485  0.21055226  0.13581115    -0.16000
F780        F  0.67345736  0.22551981  0.10438918    -0.13600
C781        C  0.35281829  0.06270163  0.13932721     0.24400
C782        C  0.32990352  0.08201413  0.17343426    -0.23700
C783        C  0.35266847  0.10980104  0.20090825     0.19300
C784        C  0.39710861  0.11760569  0.19364025     0.24300
C785        C  0.42011939  0.09497583  0.16121917    -0.23700
C786        C  0.39757584  0.06524002  0.13631726     0.19200
F787        F  0.41848173  0.04181409  0.10583506    -0.13600
F788        F  0.33105244  0.04497938  0.10615916    -0.16000
F789        F  0.41772190  0.14701012  0.21818383    -0.16000
F790        F  0.33199446  0.13000427  0.23381499    -0.13600
C791        C  0.36542189  0.12590364  0.04603312     0.24400
C792        C  0.34090756  0.16263135  0.05652125    -0.23700
C793        C  0.35786531  0.19225536  0.08633217     0.19300
C794        C  0.39841268  0.18460498  0.10469349     0.24300
C795        C  0.42411927  0.15029441  0.08969901    -0.23700
C796        C  0.40825353  0.12273002  0.05811705     0.19200
F797        F  0.43310272  0.09006454  0.04239719    -0.13600
F798        F  0.34680887  0.09070610  0.02903608    -0.16000
F799        F  0.41321584  0.21116850  0.13589770    -0.16000
F800        F  0.33418685  0.22665360  0.10001431    -0.13600
C801        C  0.47268000  0.97360387  0.20655093     0.24400
C802        C  0.50392621  0.95079766  0.18063246    -0.23700
C803        C  0.53434397  0.97716197  0.16117740     0.19300
C804        C  0.53953974  0.01785733  0.17734190     0.24300
C805        C  0.50334378  0.04328530  0.18324114    -0.23700
C806        C  0.46977650  0.01991992  0.20413173     0.19200
F807        F  0.43834873  0.04051700  0.22659892    -0.13600
F808        F  0.44639293  0.95241925  0.23409505    -0.16000
F809        F  0.57081381  0.02174272  0.20749771    -0.16000
F810        F  0.56437687  0.96204115  0.13381324    -0.13600
C811        C  0.53325768  0.14470372  0.97628007     0.24400
C812        C  0.50316214  0.16637984  0.95060385    -0.23700
C813        C  0.47395070  0.19416969  0.97358237     0.19300
C814        C  0.47326317  0.19377197  0.01982719     0.24300
C815        C  0.50527861  0.16986525  0.04297328    -0.23700
C816        C  0.54018851  0.15992077  0.01712290     0.19200
F817        F  0.57307487  0.18818779  0.01949895    -0.13600
F818        F  0.56354382  0.11835641  0.95966849    -0.16000
F819        F  0.44584920  0.22089891  0.04050654    -0.16000
F820        F  0.44794728  0.22234740  0.95240793    -0.13600
C821        C  0.93359003  0.78857866  0.59573255     0.24400
C822        C  0.89680120  0.81464192  0.58694981    -0.23700
C823        C  0.87166435  0.82307093  0.62407487     0.19300
C824        C  0.89124699  0.82678568  0.66473463     0.24300
C825        C  0.93449274  0.81432973  0.67023663    -0.23700
C826        C  0.95330076  0.78994510  0.63677993     0.19200
F827        F  0.98997722  0.76689938  0.64410003    -0.13600
F828        F  0.94896605  0.76013224  0.56625491    -0.16000
F829        F  0.86732957  0.83984731  0.69904868    -0.16000
F830        F  0.82814344  0.82511753  0.62132037    -0.13600
C831        C  0.88466180  0.91982911  0.60403333     0.24400
C832        C  0.85078804  0.90115625  0.58109685    -0.23700
C833        C  0.80865250  0.90585494  0.59763431     0.19300
C834        C  0.80207953  0.92249311  0.63934996     0.24300
C835        C  0.83768193  0.93458082  0.66478587    -0.23700
C836        C  0.87893148  0.93335960  0.64604663     0.19200
F837        F  0.91480734  0.94300019  0.66883492    -0.13600
F838        F  0.92387228  0.92509862  0.58643114    -0.16000
F839        F  0.76144813  0.92398897  0.65562333    -0.16000
F840        F  0.77458757  0.89056390  0.57520973    -0.13600
C841        C  0.81269351  0.88642774  0.39683101     0.24400
C842        C  0.84995772  0.89703866  0.42012976    -0.23700
C843        C  0.87886079  0.92622032  0.40112905     0.19300
C844        C  0.87504193  0.93777329  0.35810015     0.24300
C845        C  0.83810449  0.92791754  0.33461196    -0.23700
C846        C  0.80602846  0.90299226  0.35493054     0.19200
F847        F  0.76969484  0.89230856  0.33337853    -0.13600
F848        F  0.78310130  0.85972450  0.41443390    -0.16000
F849        F  0.90902144  0.95680108  0.33888087    -0.16000
F850        F  0.91287085  0.94187660  0.42283463    -0.13600
C851        C  0.89303469  0.79329411  0.39506901     0.24400
C852        C  0.90996989  0.82636462  0.42078038    -0.23700
C853        C  0.94174588  0.85266253  0.40336981     0.19300
C854        C  0.94935185  0.85249173  0.35932211     0.24300
C855        C  0.93590416  0.81814088  0.33383234    -0.23700
C856        C  0.90813339  0.78747402  0.35251631     0.19200
F857        F  0.89292060  0.75430311  0.32875390    -0.13600
F858        F  0.86229619  0.76692251  0.41112890    -0.16000
F859        F  0.96555482  0.88820098  0.34095881    -0.16000
F860        F  0.96191956  0.88160842  0.42859191    -0.13600
C861        C  0.90242860  0.18618838  0.59847899     0.24400
C862        C  0.92289451  0.15339411  0.57459190    -0.23700
C863        C  0.95834600  0.13144856  0.59298682     0.19300
C864        C  0.96976392  0.13850993  0.63546480     0.24300
C865        C  0.94795954  0.16952829  0.66016587    -0.23700
C866        C  0.91537186  0.19477816  0.64087741     0.19200
F867        F  0.89411730  0.22550572  0.66390189    -0.13600
F868        F  0.86848254  0.20823070  0.58150437    -0.16000
F869        F  0.00189619  0.11404414  0.65274776    -0.16000
F870        F  0.98040438  0.10046384  0.57158727    -0.13600
C871        C  0.81172288  0.07647734  0.63868234     0.24400
C872        C  0.84339116  0.05424942  0.66273987    -0.23700
C873        C  0.88324127  0.04475231  0.64306263     0.19300
C874        C  0.89123886  0.05677798  0.60086393     0.24300
C875        C  0.86187504  0.08306332  0.57850150    -0.23700
C876        C  0.82131244  0.09153729  0.59706808     0.19200
F877        F  0.79135469  0.11490227  0.57512607    -0.13600
F878        F  0.77249982  0.08555949  0.65605904    -0.16000
F879        F  0.92829705  0.04285688  0.58242454    -0.16000
F880        F  0.91549954  0.02470656  0.66489809    -0.13600
C881        C  0.94673017  0.13915505  0.34596077     0.24400
C882        C  0.92134032  0.16887000  0.32236097    -0.23700
C883        C  0.88826075  0.19131851  0.34439174     0.19300
C884        C  0.88093123  0.18348687  0.38863683     0.24300
C885        C  0.90797696  0.15503207  0.41187437    -0.23700
C886        C  0.94198756  0.13473384  0.38997486     0.19200
F887        F  0.96859998  0.10655060  0.40999657    -0.13600
F888        F  0.97644262  0.11300760  0.32670618    -0.16000
F889        F  0.84679930  0.20265915  0.40851963    -0.16000
F890        F  0.86227997  0.21953769  0.32309221    -0.13600
C891        C  0.88830991  0.05436906  0.39653261     0.24400
C892        C  0.85686329  0.07900822  0.41784407    -0.23700
C893        C  0.81728579  0.08700269  0.39753062     0.19300
C894        C  0.81053552  0.07253003  0.35532832     0.24300
C895        C  0.84475441  0.05328822  0.33191930    -0.23700
C896        C  0.88433126  0.04625866  0.35283177     0.19200
F897        F  0.92020665  0.03404911  0.33074095    -0.13600
F898        F  0.92471244  0.04146039  0.41703650    -0.16000
F899        F  0.77167120  0.07998956  0.33664202    -0.16000
F900        F  0.78579409  0.10963568  0.41814069    -0.13600
C901        C  0.81431359  0.01413712  0.49665826     0.24400
C902        C  0.85481874  0.03403036  0.49936146    -0.23700
C903        C  0.89189505  0.00805985  0.50243257     0.19300
C904        C  0.88924951  0.96382723  0.50403897     0.24300
C905        C  0.84945491  0.94349404  0.50091858    -0.23700
C906        C  0.81162134  0.96870001  0.49721893     0.19200
F907        F  0.77268657  0.94951460  0.49407339    -0.13600
F908        F  0.77791671  0.03848004  0.49322369    -0.16000
F909        F  0.92643256  0.94030370  0.50582195    -0.16000
F910        F  0.93153611  0.02534793  0.50275082    -0.13600
C911        C  0.11411287  0.08134307  0.60235583     0.24400
C912        C  0.14928112  0.08946500  0.57488406    -0.23700
C913        C  0.19057872  0.07540939  0.58828006     0.19300
C914        C  0.19710034  0.05858908  0.62996823     0.24300
C915        C  0.16270155  0.05644600  0.65961541    -0.23700
C916        C  0.12077462  0.06646366  0.64441244     0.19200
F917        F  0.08592229  0.06408862  0.67080551    -0.13600
F918        F  0.07343699  0.09203484  0.59000489    -0.16000
F919        F  0.23728374  0.04543322  0.64154064    -0.16000
F920        F  0.22516688  0.08069729  0.56208410    -0.13600
C921        C  0.13717825  0.17209265  0.61405949     0.24400
C922        C  0.11002176  0.17804118  0.57768670    -0.23700
C923        C  0.07113432  0.20057571  0.58715069     0.19300
C924        C  0.05445543  0.20220928  0.62937029     0.24300
C925        C  0.07634543  0.18212522  0.66354148    -0.23700
C926        C  0.11973866  0.17085480  0.65618182     0.19200
F927        F  0.14535880  0.15911662  0.68964312    -0.13600
F928        F  0.18005532  0.16484040  0.60868071    -0.16000
F929        F  0.01777556  0.22513825  0.63697066    -0.16000
F930        F  0.05302613  0.22756374  0.55850646    -0.13600
C931        C  0.07143579  0.17214541  0.39032393     0.24400
C932        C  0.11305056  0.17488846  0.40858491    -0.23700
C933        C  0.14656742  0.18803321  0.38028048     0.19300
C934        C  0.13905128  0.19373263  0.33547303     0.24300
C935        C  0.09722372  0.18918803  0.31857475    -0.23700
C936        C  0.06365519  0.18261774  0.34758368     0.19200
F937        F  0.02239586  0.18407734  0.33372866    -0.13600
F938        F  0.03832392  0.15352676  0.41054637    -0.16000
F939        F  0.17272104  0.20164155  0.30875848    -0.16000
F940        F  0.18732187  0.19193547  0.39543376    -0.13600
C941        C  0.20054852  0.09261124  0.39420458     0.24400
C942        C  0.15869169  0.09378842  0.41222188    -0.23700
C943        C  0.12469314  0.07787183  0.38751642     0.19300
C944        C  0.13108419  0.06534403  0.34484026     0.24300
C945        C  0.17288351  0.06323220  0.32629549    -0.23700
C946        C  0.20774672  0.07652328  0.35206686     0.19200
F947        F  0.24846192  0.07573662  0.33602358    -0.13600
F948        F  0.23418722  0.10861350  0.41670567    -0.16000
F949        F  0.09531218  0.05657991  0.32146762    -0.16000
F950        F  0.08422141  0.07665414  0.40400453    -0.13600
C951        C  0.03556734  0.13192341  0.49204934     0.24400
C952        C  0.05510358  0.17206759  0.49082411    -0.23700
C953        C  0.02814679  0.20841145  0.48236867     0.19300
C954        C  0.98244103  0.20411053  0.48340135     0.24300
C955        C  0.96412008  0.16305755  0.48958375    -0.23700
C956        C  0.99171105  0.12750211  0.49132325     0.19200
F957        F  0.97601883  0.08713719  0.49030115    -0.13600
F958        F  0.05904858  0.09657536  0.48387661    -0.16000
F959        F  0.95665916  0.23923387  0.47792573    -0.16000
F960        F  0.04581010  0.24747603  0.47455982    -0.13600
C961        C  0.05108265  0.86628959  0.64523306     0.24400
C962        C  0.06798225  0.83198595  0.66946171    -0.23700
C963        C  0.09977747  0.80472462  0.65136902     0.19300
C964        C  0.11497999  0.81245633  0.60956066     0.24300
C965        C  0.09786477  0.84686599  0.58556311    -0.23700
C966        C  0.06581248  0.87365154  0.60391829     0.19200
F967        F  0.04508458  0.90379323  0.57972627    -0.13600
F968        F  0.01898562  0.89196428  0.66094321    -0.16000
F969        F  0.14604161  0.78653369  0.59242523    -0.16000
F970        F  0.11695102  0.77164887  0.67449638    -0.13600
C971        C  0.19252307  0.89849837  0.60188551     0.24400
C972        C  0.15671393  0.91395856  0.57866215    -0.23700
C973        C  0.12928011  0.94453962  0.59887138     0.19300
C974        C  0.13324307  0.95364525  0.64221241     0.24300
C975        C  0.16815914  0.93775603  0.66568085    -0.23700
C976        C  0.19895724  0.91130555  0.64479102     0.19200
F977        F  0.23339611  0.89533594  0.66669487    -0.13600
F978        F  0.21989017  0.86930999  0.58373774    -0.16000
F979        F  0.10142014  0.97693126  0.66156230    -0.16000
F980        F  0.09518494  0.96276690  0.57904450    -0.13600
C981        C  0.10855424  0.80375568  0.39673911     0.24400
C982        C  0.09118984  0.83745594  0.42175363    -0.23700
C983        C  0.06082635  0.86538439  0.40341991     0.19300
C984        C  0.05413015  0.86465443  0.35927011     0.24300
C985        C  0.06620188  0.82829031  0.33525863    -0.23700
C986        C  0.09362405  0.79732225  0.35458827     0.19200
F987        F  0.10877297  0.76314504  0.33168512    -0.13600
F988        F  0.13910245  0.77697655  0.41339379    -0.16000
F989        F  0.04011809  0.90119717  0.33965153    -0.16000
F990        F  0.04217582  0.89679223  0.42755087    -0.13600
C991        C  0.12614099  0.93703960  0.39956516     0.24400
C992        C  0.15224641  0.90448111  0.41789290    -0.23700
C993        C  0.18742261  0.88824910  0.39436694     0.19300
C994        C  0.19515557  0.90316109  0.35254724     0.24300
C995        C  0.16650417  0.93309662  0.33349989    -0.23700
C996        C  0.13191384  0.94939432  0.35736891     0.19200
F997        F  0.10212035  0.97602286  0.33938332    -0.13600
F998        F  0.09278673  0.95537121  0.42089528    -0.16000
F999        F  0.22888014  0.88643306  0.32993999    -0.16000
F1000       F  0.21346307  0.85732079  0.41151491    -0.13600
C1001       C  0.11979559  0.97822358  0.49921304     0.24400
C1002       C  0.15803173  0.95502559  0.49434931    -0.23700
C1003       C  0.19664893  0.97734689  0.48715352     0.19300
C1004       C  0.19596258  0.02294411  0.48538755     0.24300
C1005       C  0.15727292  0.04592350  0.49397584    -0.23700
C1006       C  0.12022989  0.02210130  0.50378807     0.19200
F1007       F  0.08515084  0.03966353  0.52261921    -0.13600
F1008       F  0.08134974  0.95757009  0.50220799    -0.16000
F1009       F  0.23311635  0.04435967  0.47800097    -0.16000
F1010       F  0.23428754  0.95535293  0.48179973    -0.13600
C1011       C  0.98129870  0.78870177  0.47548232     0.24400
C1012       C  0.95753954  0.81712126  0.50327023    -0.23700
C1013       C  0.98250769  0.83953582  0.53303155     0.19300
C1014       C  0.02365499  0.82525658  0.54081049     0.24300
C1015       C  0.04963128  0.81473049  0.50640657    -0.23700
C1016       C  0.02749410  0.79001461  0.47489948     0.19200
F1017       F  0.04936463  0.76328252  0.44807910    -0.13600
F1018       F  0.96092949  0.75960399  0.45045952    -0.16000
F1019       F  0.02784724  0.79968061  0.57592082    -0.16000
F1020       F  0.96539826  0.86679284  0.56188406    -0.13600
loop_ 
_geom_bond_atom_site_label_1 
_geom_bond_atom_site_label_2 
_geom_bond_distance 
_geom_bond_site_symmetry_2 
_ccdc_geom_bond_type 
C1            C2   1.429       .  A
C1            C6   1.432       .  A
C1          C982   1.481       .  S
C2            C3   1.452       .  A
C2         C1015   1.549       .  S
C3            C4   1.424       .  A
C3          C965   1.483       .  S
C4            C5   1.405       .  A
C4          C972   1.510       .  S
C5            C6   1.406       .  A
C5         C1002   1.483       .  S
C6          C992   1.489       .  S
C7            C8   1.427       .  A
C7           C12   1.451       .  A
C7          C912   1.519       .  S
C8            C9   1.426       .  A
C8         C1005   1.502       .  S
C9           C10   1.437       .  A
C9          C942   1.513       .  S
C10          C11   1.452       .  A
C10         C932   1.536       .  S
C11          C12   1.458       .  A
C11         C952   1.503       .  S
C12         C922   1.561       .  S
C13          C14   1.425       .  A
C13          C18   1.425       .  A
C13         C862   1.494       .  S
C14          C15   1.424       .  A
C14         C955   1.497       .  S
C15          C16   1.429       .  A
C15         C885   1.498       .  S
C16          C17   1.410       .  A
C16         C892   1.485       .  S
C17          C18   1.409       .  A
C17         C902   1.492       .  S
C18         C875   1.492       .  S
C19          C20   1.458       .  A
C19          C24   1.453       .  A
C19         C822   1.563       .  S
C20          C21   1.435       .  A
C20        C1012   1.526       .  S
C21          C22   1.429       .  A
C21         C852   1.492       .  S
C22          C23   1.410       .  A
C22         C842   1.514       .  S
C23          C24   1.420       .  A
C23         C905   1.487       .  S
C24         C832   1.505       .  S
C25          C26   1.448       .  A
C25          C30   1.438       .  A
C25         C785   1.508       .  S
C26          C27   1.427       .  A
C26         C795   1.472       .  S
C27          C28   1.436       .  A
C27         C815   1.564       .  S
C28          C29   1.430       .  A
C28         C775   1.495       .  S
C29          C30   1.454       .  A
C29         C762   1.512       .  S
C30         C805   1.557       .  S
C31          C32   1.422       .  A
C31          C36   1.416       .  A
C31         C732   1.522       .  S
C32          C33   1.428       .  A
C32         C745   1.479       .  S
C33          C34   1.457       .  A
C33         C812   1.528       .  S
C34          C35   1.453       .  A
C34         C725   1.557       .  S
C35          C36   1.419       .  A
C35         C715   1.504       .  S
C36         C752   1.483       .  S
C37          C38   1.462       .  A
C37          C42   1.454       .  A
C37         C662   1.560       .  S
C38          C39   1.431       .  A
C38         C802   1.533       .  S
C39          C40   1.423       .  A
C39         C682   1.480       .  S
C40          C41   1.411       .  A
C40         C692   1.519       .  S
C41          C42   1.421       .  A
C41         C705   1.483       .  S
C42         C672   1.510       .  S
C43          C44   1.426       .  A
C43          C48   1.422       .  A
C43         C622   1.498       .  S
C44          C45   1.441       .  A
C44         C755   1.492       .  S
C45          C46   1.450       .  A
C45         C642   1.548       .  S
C46          C47   1.420       .  A
C46         C652   1.491       .  S
C47          C48   1.407       .  A
C47         C702   1.500       .  S
C48         C632   1.496       .  S
C49          C50   1.417       .  A
C49          C54   1.425       .  A
C49         C562   1.483       .  S
C50          C51   1.415       .  A
C50         C615   1.490       .  S
C51          C52   1.429       .  A
C51         C585   1.499       .  S
C52          C53   1.421       .  A
C52         C592   1.491       .  S
C53          C54   1.412       .  A
C53         C605   1.491       .  S
C54         C575   1.496       .  S
C55          C56   1.432       .  A
C55          C60   1.433       .  A
C55         C522   1.522       .  S
C56          C57   1.445       .  A
C56         C602   1.486       .  S
C57          C58   1.442       .  A
C57         C542   1.550       .  S
C58          C59   1.430       .  A
C58         C535   1.508       .  S
C59          C60   1.442       .  A
C59         C552   1.522       .  S
C60         C515   1.520       .  S
C61          C62   1.441       .  A
C61          C66   1.450       .  A
C61         C482   1.550       .  S
C62          C63   1.426       .  A
C62         C555   1.513       .  S
C63          C64   1.424       .  A
C63         C462   1.476       .  S
C64          C65   1.421       .  A
C64         C472   1.527       .  S
C65          C66   1.426       .  A
C65         C502   1.496       .  S
C66         C495   1.495       .  S
C67          C68   1.429       .  A
C67          C72   1.448       .  A
C67         C422   1.516       .  S
C68          C69   1.418       .  A
C68         C612   1.493       .  S
C69          C70   1.426       .  A
C69         C445   1.507       .  S
C70          C71   1.425       .  A
C70         C452   1.499       .  S
C71          C72   1.440       .  A
C71         C505   1.501       .  S
C72         C432   1.538       .  S
O73          C81   1.267       .  A
O73         Co93   1.988   1_565  S
O74          C82   1.263       .  A
O74         Co94   1.983       .  S
O75          C83   1.273       .  A
O75         Co95   2.026       .  S
O76          C84   1.265       .  A
O76         Co96   1.996       .  S
O77          C83   1.261       .  A
O77         Co94   1.986   1_565  S
O78          C84   1.271       .  A
O78         Co93   1.990       .  S
O79          C82   1.280       .  A
O79         Co96   2.039       .  S
O80          C81   1.272       .  A
O80         Co95   2.008       .  S
C81         C342   1.478       .  S
C82         C258   1.484       .  S
C83         C170   1.484       .  S
C84         C110   1.470       .  S
O85          C98   1.272       .  A
O85         Co93   2.024       .  S
O86          C99   1.278       .  A
O86         Co94   2.066   1_565  S
O87         C100   1.255       .  A
O87         Co95   1.949       .  S
O88         C101   1.263       .  A
O88         Co96   1.972       .  S
O89         C101   1.273       .  A
O89         Co94   2.027       .  S
O90         C100   1.274       .  A
O90         Co93   2.033   1_565  S
O91          C98   1.272       .  A
O91         Co96   2.000       .  S
O92          C99   1.253       .  A
O92         Co95   1.953       .  S
Co93         O97   2.115       .  S
Co94         O97   2.119       .  S
Co95         O97   2.094   1_565  S
Co96         O97   2.110       .  S
C98         C915   1.505       .  S
C99         C645   1.481       .  S
C100        C975   1.474       .  S
C101        C735   1.484       .  S
O102        C110   1.254       .  A
O102       Co122   1.961       .  S
O103        C111   1.266       .  A
O103       Co123   1.985   1_655  S
O104        C112   1.269       .  A
O104       Co124   2.011       .  S
O105        C113   1.272       .  A
O105       Co125   2.018       .  S
O106        C112   1.271       .  A
O106       Co123   1.993       .  S
O107        C113   1.266       .  A
O107       Co122   2.000   1_655  S
O108        C111   1.274       .  A
O108       Co125   2.019       .  S
O109        C110   1.276       .  A
O109       Co124   2.035       .  S
C111        C314   1.480       .  S
C112        C256   1.482       .  S
C113        C371   1.487       .  S
O114        C127   1.269       .  A
O114       Co122   2.010   1_655  S
O115        C128   1.271       .  A
O115       Co123   2.017       .  S
O116        C129   1.256       .  A
O116       Co124   1.964       .  S
O117        C130   1.260       .  A
O117       Co125   1.965       .  S
O118        C130   1.274       .  A
O118       Co123   2.030   1_655  S
O119        C129   1.283       .  A
O119       Co122   2.088       .  S
O120        C127   1.261       .  A
O120       Co125   1.966       .  S
O121        C128   1.261       .  A
O121       Co124   1.967       .  S
Co122       O126   2.111       .  S
Co123       O126   2.115       .  S
Co124       O126   2.107       .  S
Co125       O126   2.107   1_655  S
C127        C865   1.472       .  S
C128        C582   1.484       .  S
C129        C925   1.501       .  S
C130        C442   1.483       .  S
O131        C139   1.268       .  A
O131       Co151   1.991       .  S
O132        C140   1.270       .  A
O132       Co152   1.997   1_655  S
O133        C141   1.274       .  A
O133       Co153   2.036       .  S
O134        C142   1.269       .  A
O134       Co154   2.013       .  S
O135        C141   1.256       .  A
O135       Co152   1.972       .  S
O136        C142   1.262       .  A
O136       Co151   1.975   1_655  S
O137        C140   1.271       .  A
O137       Co154   2.012       .  S
O138        C139   1.268       .  A
O138       Co153   1.999       .  S
C139        C226   1.474       .  S
C140        C402   1.481       .  S
C141        C171   1.478       .  S
C142        C286   1.468       .  S
O143        C156   1.278       .  A
O143       Co151   2.045   1_655  S
O144        C157   1.284       .  A
O144       Co152   2.080       .  S
O145        C158   1.258       .  A
O145       Co153   1.959       .  S
O146        C159   1.261       .  A
O146       Co154   1.960       .  S
O147        C159   1.264       .  A
O147       Co152   2.005   1_655  S
O148        C158   1.270       .  A
O148       Co151   2.026       .  S
O149        C156   1.261       .  A
O149       Co154   1.960       .  S
O150        C157   1.251       .  A
O150       Co153   1.941       .  S
Co151       O155   2.111       .  S
Co152       O155   2.113       .  S
Co153       O155   2.106       .  S
Co154       O155   2.112   1_655  S
C156        C855   1.488       .  S
C157        C512   1.481       .  S
C158        C985   1.480       .  S
C159        C465   1.471       .  S
O160        C168   1.275       .  A
O160       Co180   2.007       .  S
O161        C169   1.277       .  A
O161       Co181   2.021       .  S
O162        C170   1.272       .  A
O162       Co182   2.003   1_556  S
O163        C171   1.270       .  A
O163       Co183   1.994       .  S
O164        C170   1.268       .  A
O164       Co181   2.007       .  S
O165        C171   1.266       .  A
O165       Co180   2.007       .  S
O166        C169   1.270       .  A
O166       Co183   1.988   1_556  S
O167        C168   1.262       .  A
O167       Co182   1.967       .  S
C168        C229   1.463       .  S
C169        C345   1.480       .  S
O172        C185   1.267       .  A
O172       Co180   1.977       .  S
O173        C186   1.267       .  A
O173       Co181   1.982       .  S
O174        C187   1.278       .  A
O174       Co182   2.050       .  S
O175        C188   1.269       .  A
O175       Co183   2.008   1_556  S
O176        C188   1.262       .  A
O176       Co181   1.971       .  S
O177        C187   1.263       .  A
O177       Co180   1.967       .  S
O178        C185   1.276       .  A
O178       Co183   2.037       .  S
O179        C186   1.267       .  A
O179       Co182   1.996   1_556  S
Co180       O184   2.105       .  S
Co181       O184   2.101   1_556  S
Co182       O184   2.111       .  S
Co183       O184   2.106       .  S
C185        C525   1.499       .  S
C186        C655   1.482       .  S
C187        C695   1.491       .  S
C188        C572   1.475       .  S
O189        C197   1.245       .  A
O189       Co209   2.020       .  S
O190        C198   1.291       .  A
O190       Co210   2.040       .  S
O191        C199   1.250       .  A
O191       Co211   2.007   1_655  S
O192        C200   1.283       .  A
O192       Co212   1.994       .  S
O193        C199   1.243       .  A
O193       Co210   1.988       .  S
O194        C200   1.287       .  A
O194       Co209   2.011       .  S
O195        C198   1.272       .  A
O195       Co212   1.979   1_655  S
O196        C197   1.239       .  A
O196       Co211   1.969       .  S
C197        C228   1.468       .  S
C198        C316   1.475       .  S
C199        C284   1.480       .  S
C200        C257   1.468       .  S
O201        C214   1.269       .  A
O201       Co209   1.991       .  S
O202        C215   1.287       .  A
O202       Co210   1.925       .  S
O203        C216   1.317       .  A
O203       Co211   2.135       .  S
O204        C217   1.281       .  A
O204       Co212   2.056   1_655  S
O205        C217   1.263       .  A
O205       Co210   1.957       .  S
O206        C216   1.287       .  A
O206       Co209   1.908       .  S
O207        C214   1.266       .  A
O207       Co212   1.995       .  S
O208        C215   1.298       .  A
O208       Co211   2.070   1_655  S
Co209       O213   2.006       .  S
Co210       O213   1.994   1_655  S
Co211       O213   2.084       .  S
Co212       O213   2.029       .  S
C214        C532   1.495       .  S
C215        C882   1.494       .  S
C216        C935   1.498       .  S
C217        C485   1.481       .  S
O218        C226   1.275       .  A
O218       Co238   2.009       .  S
O219        C227   1.300       .  A
O219       Co239   2.136       .  S
O220        C228   1.268       .  A
O220       Co240   1.977   1_545  S
O221        C229   1.274       .  A
O221       Co241   1.994       .  S
O222        C228   1.276       .  A
O222       Co239   2.009       .  S
O223        C229   1.270       .  A
O223       Co238   1.981       .  S
O224        C227   1.271       .  A
O224       Co241   1.892   1_545  S
O225        C226   1.268       .  A
O225       Co240   1.989       .  S
C227        C255   1.472       .  S
O230        C243   1.264       .  A
O230       Co238   1.971       .  S
O231        C244   1.282       .  A
O231       Co239   2.021       .  S
O232        C245   1.276       .  A
O232       Co240   2.013       .  S
O233        C246   1.298       .  A
O233       Co241   2.122   1_545  S
O234        C246   1.278       .  A
O234       Co239   1.929       .  S
O235        C245   1.260       .  A
O235       Co238   1.943       .  S
O236        C243   1.271       .  A
O236       Co241   2.010       .  S
O237        C244   1.273       .  A
O237       Co240   2.008   1_545  S
Co238       O242   2.019       .  S
Co239       O242   2.001   1_545  S
Co240       O242   2.020       .  S
Co241       O242   1.970       .  S
C243        C685   1.476       .  S
C244        C945   1.512       .  S
C245        C995   1.461       .  S
C246        C782   1.503       .  S
O247        C255   1.286       .  A
O247       Co267   1.889   1_554  S
O248        C256   1.264       .  A
O248       Co268   1.996   1_556  S
O249        C257   1.259       .  A
O249       Co269   1.994       .  S
O250        C258   1.270       .  A
O250       Co270   2.005       .  S
O251        C257   1.253       .  A
O251       Co268   1.971       .  S
O252        C258   1.275       .  A
O252       Co267   1.994       .  S
O253        C256   1.272       .  A
O253       Co270   2.014       .  S
O254        C255   1.316       .  A
O254       Co269   2.148       .  S
O259        C272   1.284       .  A
O259       Co267   2.031       .  S
O260        C273   1.283       .  A
O260       Co268   2.081       .  S
O261        C274   1.227       .  A
O261       Co269   1.937       .  S
O262        C275   1.265       .  A
O262       Co270   1.962       .  S
O263        C275   1.271       .  A
O263       Co268   2.004   1_556  S
O264        C274   1.248       .  A
O264       Co267   2.057   1_554  S
O265        C272   1.269       .  A
O265       Co270   1.957       .  S
O266        C273   1.249       .  A
O266       Co269   1.943       .  S
Co267       O271   2.007       .  S
Co268       O271   2.085   1_554  S
Co269       O271   2.105   1_554  S
Co270       O271   2.072       .  S
C272        C742   1.474       .  S
C273        C545   1.489       .  S
C274        C792   1.476       .  S
C275        C595   1.468       .  S
O276        C284   1.275       .  A
O276       Co296   2.019       .  S
O277        C285   1.275       .  A
O277       Co297   2.030       .  S
O278        C286   1.262       .  A
O278       Co298   1.975       .  S
O279        C287   1.268       .  A
O279       Co299   2.000   1_545  S
O280        C286   1.269       .  A
O280       Co297   2.014       .  S
O281        C287   1.272       .  A
O281       Co296   2.021       .  S
O282        C285   1.258       .  A
O282       Co299   1.969       .  S
O283        C284   1.263       .  A
O283       Co298   1.979   1_545  S
C285        C400   1.471       .  S
C287        C313   1.493       .  S
O288        C301   1.262       .  A
O288       Co296   1.973       .  S
O289        C302   1.258       .  A
O289       Co297   1.963       .  S
O290        C303   1.270       .  A
O290       Co298   2.020   1_545  S
O291        C304   1.281       .  A
O291       Co299   2.082       .  S
O292        C304   1.251       .  A
O292       Co297   1.953       .  S
O293        C303   1.260       .  A
O293       Co296   1.962       .  S
O294        C301   1.269       .  A
O294       Co299   2.011   1_545  S
O295        C302   1.275       .  A
O295       Co298   2.045       .  S
Co296       O300   2.102   1_545  S
Co297       O300   2.104       .  S
Co298       O300   2.121       .  S
Co299       O300   2.120       .  S
C301        C765   1.478       .  S
C302        C845   1.491       .  S
C303        C895   1.481       .  S
C304        C665   1.491       .  S
O305        C313   1.275       .  A
O305       Co325   2.027       .  S
O306        C314   1.272       .  A
O306       Co326   2.014       .  S
O307        C315   1.261       .  A
O307       Co327   1.974       .  S
O308        C316   1.273       .  A
O308       Co328   1.990   1_554  S
O309        C315   1.270       .  A
O309       Co326   2.021       .  S
O310        C316   1.267       .  A
O310       Co325   2.007       .  S
O311        C314   1.268       .  A
O311       Co328   1.990       .  S
O312        C313   1.271       .  A
O312       Co327   2.003   1_554  S
C315        C373   1.470       .  S
O317        C330   1.263       .  A
O317       Co325   1.971       .  S
O318        C331   1.253       .  A
O318       Co326   1.954       .  S
O319        C332   1.267       .  A
O319       Co327   1.999   1_554  S
O320        C333   1.277       .  A
O320       Co328   2.049       .  S
O321        C333   1.256       .  A
O321       Co326   1.949       .  S
O322        C332   1.259       .  A
O322       Co325   1.959       .  S
O323        C330   1.267       .  A
O323       Co328   2.000   1_554  S
O324        C331   1.282       .  A
O324       Co327   2.082       .  S
Co325       O329   2.108   1_554  S
Co326       O329   2.098       .  S
Co327       O329   2.113       .  S
Co328       O329   2.108       .  S
C330        C492   1.479       .  S
C331        C722   1.491       .  S
C332        C772   1.465       .  S
C333        C455   1.482       .  S
O334        C342   1.270       .  A
O334       Co354   2.002       .  S
O335        C343   1.269       .  A
O335       Co355   2.006       .  S
O336        C344   1.255       .  A
O336       Co356   1.960   1_655  S
O337        C345   1.268       .  A
O337       Co357   1.992       .  S
O338        C344   1.275       .  A
O338       Co355   2.031       .  S
O339        C345   1.271       .  A
O339       Co354   2.009       .  S
O340        C343   1.272       .  A
O340       Co357   1.990   1_655  S
O341        C342   1.268       .  A
O341       Co356   1.999       .  S
C343        C401   1.475       .  S
C344        C374   1.467       .  S
O346        C359   1.257       .  A
O346       Co354   1.943       .  S
O347        C360   1.255       .  A
O347       Co355   1.956       .  S
O348        C361   1.265       .  A
O348       Co356   1.998       .  S
O349        C362   1.272       .  A
O349       Co357   2.025   1_655  S
O350        C362   1.261       .  A
O350       Co355   1.971       .  S
O351        C361   1.259       .  A
O351       Co354   1.961       .  S
O352        C359   1.273       .  A
O352       Co357   2.026       .  S
O353        C360   1.284       .  A
O353       Co356   2.087   1_655  S
Co354       O358   2.096       .  S
Co355       O358   2.099   1_655  S
Co356       O358   2.110       .  S
Co357       O358   2.112       .  S
C359        C565   1.464       .  S
C360        C825   1.494       .  S
C361        C962   1.463       .  S
C362        C425   1.491       .  S
O363        C371   1.272       .  A
O363       Co383   1.996   1_545  S
O364        C372   1.265       .  A
O364       Co384   1.986       .  S
O365        C373   1.271       .  A
O365       Co385   2.011       .  S
O366        C374   1.266       .  A
O366       Co386   2.000       .  S
O367        C373   1.265       .  A
O367       Co384   1.979   1_545  S
O368        C374   1.270       .  A
O368       Co383   1.984       .  S
O369        C372   1.276       .  A
O369       Co386   2.026       .  S
O370        C371   1.274       .  A
O370       Co385   2.019       .  S
C372        C403   1.483       .  S
O375        C388   1.273       .  A
O375       Co383   2.022       .  S
O376        C389   1.272       .  A
O376       Co384   2.017   1_545  S
O377        C390   1.264       .  A
O377       Co385   1.975       .  S
O378        C391   1.259       .  A
O378       Co386   1.956       .  S
O379        C391   1.275       .  A
O379       Co384   2.039       .  S
O380        C390   1.269       .  A
O380       Co383   2.012   1_545  S
O381        C388   1.262       .  A
O381       Co386   1.968       .  S
O382        C389   1.264       .  A
O382       Co385   1.973       .  S
Co383       O387   2.103       .  S
Co384       O387   2.106       .  S
Co385       O387   2.107   1_545  S
Co386       O387   2.105       .  S
C388        C835   1.485       .  S
C389        C712   1.487       .  S
C390        C872   1.482       .  S
C391        C625   1.481       .  S
O392        C400   1.269       .  A
O392       Co412   1.982       .  S
O393        C401   1.257       .  A
O393       Co413   1.973       .  S
O394        C402   1.274       .  A
O394       Co414   2.023       .  S
O395        C403   1.269       .  A
O395       Co415   2.005       .  S
O396        C402   1.265       .  A
O396       Co413   1.987   1_554  S
O397        C403   1.272       .  A
O397       Co412   2.001   1_556  S
O398        C401   1.274       .  A
O398       Co415   2.032       .  S
O399        C400   1.268       .  A
O399       Co414   2.006       .  S
O404        C417   1.271       .  A
O404       Co412   2.027   1_556  S
O405        C418   1.272       .  A
O405       Co413   2.026   1_554  S
O406        C419   1.266       .  A
O406       Co414   1.976       .  S
O407        C420   1.251       .  A
O407       Co415   1.943       .  S
O408        C420   1.278       .  A
O408       Co413   2.064       .  S
O409        C419   1.274       .  A
O409       Co412   2.025       .  S
O410        C417   1.258       .  A
O410       Co415   1.959       .  S
O411        C418   1.264       .  A
O411       Co414   1.977       .  S
Co412       O416   2.115       .  S
Co413       O416   2.115   1_556  S
Co414       O416   2.111       .  S
Co415       O416   2.093   1_556  S
C417        C635   1.478       .  S
C418        C475   1.490       .  S
C419        C675   1.492       .  S
C420        C435   1.473       .  S
C421        C422   1.411       .  A
C421        C426   1.389       .  A
C421        F428   1.348       .  S
C422        C423   1.411       .  A
C423        C424   1.407       .  A
C423        F430   1.356       .  S
C424        C425   1.410       .  A
C424        F429   1.357       .  S
C425        C426   1.407       .  A
C426        F427   1.359       .  S
C431        C432   1.416       .  A
C431        C436   1.406       .  A
C431        F438   1.357       .  S
C432        C433   1.415       .  A
C433        C434   1.399       .  A
C433        F440   1.346       .  S
C434        C435   1.399       .  A
C434        F439   1.355       .  S
C435        C436   1.402       .  A
C436        F437   1.358       .  S
C441        C442   1.396       .  A
C441        C446   1.384       .  A
C441        F448   1.353       .  S
C442        C443   1.411       .  A
C443        C444   1.411       .  A
C443        F450   1.357       .  S
C444        C445   1.407       .  A
C444        F449   1.357       .  S
C445        C446   1.409       .  A
C446        F447   1.346       .  S
C451        C452   1.407       .  A
C451        C456   1.391       .  A
C451        F458   1.352       .  S
C452        C453   1.404       .  A
C453        C454   1.407       .  A
C453        F460   1.357       .  S
C454        C455   1.412       .  A
C454        F459   1.358       .  S
C455        C456   1.398       .  A
C456        F457   1.352       .  S
C461        C462   1.402       .  A
C461        C466   1.399       .  A
C461        F468   1.357       .  S
C462        C463   1.399       .  A
C463        C464   1.389       .  A
C463        F470   1.356       .  S
C464        C465   1.407       .  A
C464        F469   1.358       .  S
C465        C466   1.408       .  A
C466        F467   1.357       .  S
C471        C472   1.411       .  A
C471        C476   1.415       .  A
C471        F478   1.357       .  S
C472        C473   1.419       .  A
C473        C474   1.391       .  A
C473        F480   1.345       .  S
C474        C475   1.398       .  A
C474        F479   1.359       .  S
C475        C476   1.411       .  A
C476        F477   1.357       .  S
C481        C482   1.417       .  A
C481        C486   1.401       .  A
C481        F488   1.345       .  S
C482        C483   1.417       .  A
C483        C484   1.408       .  A
C483        F490   1.355       .  S
C484        C485   1.402       .  A
C484        F489   1.357       .  S
C485        C486   1.396       .  A
C486        F487   1.350       .  S
C491        C492   1.408       .  A
C491        C496   1.382       .  A
C491        F498   1.359       .  S
C492        C493   1.409       .  A
C493        C494   1.403       .  A
C493        F500   1.357       .  S
C494        C495   1.409       .  A
C494        F499   1.356       .  S
C495        C496   1.402       .  A
C496        F497   1.348       .  S
C501        C502   1.416       .  A
C501        C506   1.421   1_554  A
C501        F508   1.354       .  S
C502        C503   1.385       .  A
C503        C504   1.370   1_554  A
C503        F510   1.351       .  S
C504        C505   1.391       .  A
C504        F509   1.330       .  S
C505        C506   1.417       .  A
C506        F507   1.357       .  S
C511        C512   1.380       .  A
C511        C516   1.380       .  A
C511        F518   1.343       .  S
C512        C513   1.407       .  A
C513        C514   1.416       .  A
C513        F520   1.357       .  S
C514        C515   1.424       .  A
C514        F519   1.358       .  S
C515        C516   1.404       .  A
C516        F517   1.343       .  S
C521        C522   1.410       .  A
C521        C526   1.392       .  A
C521        F528   1.355       .  S
C522        C523   1.407       .  A
C523        C524   1.411       .  A
C523        F530   1.357       .  S
C524        C525   1.415       .  A
C524        F529   1.357       .  S
C525        C526   1.410       .  A
C526        F527   1.357       .  S
C531        C532   1.413       .  A
C531        C536   1.390       .  A
C531        F538   1.358       .  S
C532        C533   1.412       .  A
C533        C534   1.407       .  A
C533        F540   1.358       .  S
C534        C535   1.409       .  A
C534        F539   1.357       .  S
C535        C536   1.407       .  A
C536        F537   1.358       .  S
C541        C542   1.425       .  A
C541        C546   1.417       .  A
C541        F548   1.357       .  S
C542        C543   1.423       .  A
C543        C544   1.395       .  A
C543        F550   1.334       .  S
C544        C545   1.390       .  A
C544        F549   1.352       .  S
C545        C546   1.405       .  A
C546        F547   1.357       .  S
C551        C552   1.409       .  A
C551        C556   1.379   1_455  A
C551        F558   1.345       .  S
C552        C553   1.419       .  A
C553        C554   1.427   1_455  A
C553        F560   1.356       .  S
C554        C555   1.420       .  A
C554        F559   1.356       .  S
C555        C556   1.393       .  A
C556        F557   1.343       .  S
C561        C562   1.407       .  A
C561        C566   1.384       .  A
C561        F568   1.351       .  S
C562        C563   1.403       .  A
C563        C564   1.400       .  A
C563        F570   1.357       .  S
C564        C565   1.407       .  A
C564        F569   1.357       .  S
C565        C566   1.396       .  A
C566        F567   1.355       .  S
C571        C572   1.401       .  A
C571        C576   1.380       .  A
C571        F578   1.356       .  S
C572        C573   1.409       .  A
C573        C574   1.408       .  A
C573        F580   1.357       .  S
C574        C575   1.406       .  A
C574        F579   1.357       .  S
C575        C576   1.404       .  A
C576        F577   1.348       .  S
C581        C582   1.413       .  A
C581        C586   1.409       .  A
C581        F588   1.357       .  S
C582        C583   1.404       .  A
C583        C584   1.381       .  A
C583        F590   1.357       .  S
C584        C585   1.403       .  A
C584        F589   1.348       .  S
C585        C586   1.406       .  A
C586        F587   1.357       .  S
C591        C592   1.410       .  A
C591        C596   1.384       .  A
C591        F598   1.349       .  S
C592        C593   1.405       .  A
C593        C594   1.402       .  A
C593        F600   1.357       .  S
C594        C595   1.406       .  A
C594        F599   1.357       .  S
C595        C596   1.399       .  A
C596        F597   1.359       .  S
C601        C602   1.390       .  A
C601        C606   1.361   1_554  A
C601        F608   1.346       .  S
C602        C603   1.418       .  A
C603        C604   1.422   1_554  A
C603        F610   1.356       .  S
C604        C605   1.412       .  A
C604        F609   1.356       .  S
C605        C606   1.391       .  A
C606        F607   1.341       .  S
C611        C612   1.388       .  A
C611        C616   1.358   1_655  A
C611        F618   1.339       .  S
C612        C613   1.415       .  A
C613        C614   1.422   1_655  A
C613        F620   1.356       .  S
C614        C615   1.411       .  A
C614        F619   1.356       .  S
C615        C616   1.387       .  A
C616        F617   1.341       .  S
C621        C622   1.405       .  A
C621        C626   1.408       .  A
C621        F628   1.357       .  S
C622        C623   1.404       .  A
C623        C624   1.387       .  A
C623        F630   1.352       .  S
C624        C625   1.398       .  A
C624        F629   1.352       .  S
C625        C626   1.412       .  A
C626        F627   1.357       .  S
C631        C632   1.403       .  A
C631        C636   1.403       .  A
C631        F638   1.357       .  S
C632        C633   1.408       .  A
C633        C634   1.389       .  A
C633        F640   1.351       .  S
C634        C635   1.401       .  A
C634        F639   1.355       .  S
C635        C636   1.409       .  A
C636        F637   1.357       .  S
C641        C642   1.417       .  A
C641        C646   1.403       .  A
C641        F648   1.345       .  S
C642        C643   1.416       .  A
C643        C644   1.407       .  A
C643        F650   1.355       .  S
C644        C645   1.403       .  A
C644        F649   1.358       .  S
C645        C646   1.400       .  A
C646        F647   1.356       .  S
C651        C652   1.401       .  A
C651        C656   1.386       .  A
C651        F658   1.354       .  S
C652        C653   1.410       .  A
C653        C654   1.402       .  A
C653        F660   1.356       .  S
C654        C655   1.407       .  A
C654        F659   1.357       .  S
C655        C656   1.413       .  A
C656        F657   1.359       .  S
C661        C662   1.414       .  A
C661        C666   1.408       .  A
C661        F668   1.355       .  S
C662        C663   1.416       .  A
C663        C664   1.415       .  A
C663        F670   1.355       .  S
C664        C665   1.409       .  A
C664        F669   1.357       .  S
C665        C666   1.403       .  A
C666        F667   1.358       .  S
C671        C672   1.403       .  A
C671        C676   1.390       .  A
C671        F678   1.347       .  S
C672        C673   1.410       .  A
C673        C674   1.409       .  A
C673        F680   1.357       .  S
C674        C675   1.413       .  A
C674        F679   1.357       .  S
C675        C676   1.409       .  A
C676        F677   1.358       .  S
C681        C682   1.398       .  A
C681        C686   1.387       .  A
C681        F688   1.356       .  S
C682        C683   1.404       .  A
C683        C684   1.402       .  A
C683        F690   1.357       .  S
C684        C685   1.410       .  A
C684        F689   1.357       .  S
C685        C686   1.402       .  A
C686        F687   1.349       .  S
C691        C692   1.409       .  A
C691        C696   1.412       .  A
C691        F698   1.357       .  S
C692        C693   1.414       .  A
C693        C694   1.393       .  A
C693        F700   1.349       .  S
C694        C695   1.399       .  A
C694        F699   1.355       .  S
C695        C696   1.412       .  A
C696        F697   1.357       .  S
C701        C702   1.403       .  A
C701        C706   1.375   1_556  A
C701        F708   1.342       .  S
C702        C703   1.411       .  A
C703        C704   1.413   1_556  A
C703        F710   1.356       .  S
C704        C705   1.408       .  A
C704        F709   1.356       .  S
C705        C706   1.392       .  A
C706        F707   1.361       .  S
C711        C712   1.409       .  A
C711        C716   1.385       .  A
C711        F718   1.358       .  S
C712        C713   1.412       .  A
C713        C714   1.408       .  A
C713        F720   1.357       .  S
C714        C715   1.410       .  A
C714        F719   1.357       .  S
C715        C716   1.399       .  A
C716        F717   1.347       .  S
C721        C722   1.408       .  A
C721        C726   1.415       .  A
C721        F728   1.356       .  S
C722        C723   1.404       .  A
C723        C724   1.408       .  A
C723        F730   1.358       .  S
C724        C725   1.414       .  A
C724        F729   1.355       .  S
C725        C726   1.415       .  A
C726        F727   1.355       .  S
C731        C732   1.410       .  A
C731        C736   1.413       .  A
C731        F738   1.357       .  S
C732        C733   1.418       .  A
C733        C734   1.389       .  A
C733        F740   1.345       .  S
C734        C735   1.397       .  A
C734        F739   1.359       .  S
C735        C736   1.409       .  A
C736        F737   1.357       .  S
C741        C742   1.398       .  A
C741        C746   1.389       .  A
C741        F748   1.353       .  S
C742        C743   1.410       .  A
C743        C744   1.401       .  A
C743        F750   1.358       .  S
C744        C745   1.404       .  A
C744        F749   1.357       .  S
C745        C746   1.399       .  A
C746        F747   1.356       .  S
C751        C752   1.388       .  A
C751        C756   1.372   1_545  A
C751        F758   1.361       .  S
C752        C753   1.411       .  A
C753        C754   1.415   1_545  A
C753        F760   1.355       .  S
C754        C755   1.415       .  A
C754        F759   1.357       .  S
C755        C756   1.393       .  A
C756        F757   1.335       .  S
C761        C762   1.408       .  A
C761        C766   1.411       .  A
C761        F768   1.357       .  S
C762        C763   1.412       .  A
C763        C764   1.384       .  A
C763        F770   1.355       .  S
C764        C765   1.401       .  A
C764        F769   1.358       .  S
C765        C766   1.412       .  A
C766        F767   1.357       .  S
C771        C772   1.399       .  A
C771        C776   1.379       .  A
C771        F778   1.359       .  S
C772        C773   1.410       .  A
C773        C774   1.404       .  A
C773        F780   1.357       .  S
C774        C775   1.404       .  A
C774        F779   1.357       .  S
C775        C776   1.412       .  A
C776        F777   1.357       .  S
C781        C782   1.406       .  A
C781        C786   1.395       .  A
C781        F788   1.354       .  S
C782        C783   1.410       .  A
C783        C784   1.420       .  A
C783        F790   1.356       .  S
C784        C785   1.416       .  A
C784        F789   1.356       .  S
C785        C786   1.399       .  A
C786        F787   1.355       .  S
C791        C792   1.402       .  A
C791        C796   1.384       .  A
C791        F798   1.350       .  S
C792        C793   1.412       .  A
C793        C794   1.401       .  A
C793        F800   1.358       .  S
C794        C795   1.403       .  A
C794        F799   1.358       .  S
C795        C796   1.397       .  A
C796        F797   1.358       .  S
C801        C802   1.440       .  A
C801        C806   1.441   1_565  A
C801        F808   1.355       .  S
C802        C803   1.392       .  A
C803        C804   1.371   1_565  A
C803        F810   1.341       .  S
C804        C805   1.378       .  A
C804        F809   1.357       .  S
C805        C806   1.429       .  A
C806        F807   1.353       .  S
C811        C812   1.396       .  A
C811        C816   1.373   1_556  A
C811        F818   1.342       .  S
C812        C813   1.434       .  A
C813        C814   1.437   1_556  A
C813        F820   1.354       .  S
C814        C815   1.429       .  A
C814        F819   1.352       .  S
C815        C816   1.379       .  A
C816        F817   1.355       .  S
C821        C822   1.419       .  A
C821        C826   1.417       .  A
C821        F828   1.355       .  S
C822        C823   1.414       .  A
C823        C824   1.408       .  A
C823        F830   1.354       .  S
C824        C825   1.403       .  A
C824        F829   1.357       .  S
C825        C826   1.408       .  A
C826        F827   1.357       .  S
C831        C832   1.402       .  A
C831        C836   1.382       .  A
C831        F838   1.344       .  S
C832        C833   1.410       .  A
C833        C834   1.409       .  A
C833        F840   1.358       .  S
C834        C835   1.414       .  A
C834        F839   1.357       .  S
C835        C836   1.405       .  A
C836        F837   1.357       .  S
C841        C842   1.408       .  A
C841        C846   1.414       .  A
C841        F848   1.357       .  S
C842        C843   1.409       .  A
C843        C844   1.388       .  A
C843        F850   1.349       .  S
C844        C845   1.397       .  A
C844        F849   1.351       .  S
C845        C846   1.414       .  A
C846        F847   1.357       .  S
C851        C852   1.408       .  A
C851        C856   1.413       .  A
C851        F858   1.357       .  S
C852        C853   1.394       .  A
C853        C854   1.388       .  A
C853        F860   1.352       .  S
C854        C855   1.397       .  A
C854        F859   1.347       .  S
C855        C856   1.414       .  A
C856        F857   1.357       .  S
C861        C862   1.406       .  A
C861        C866   1.405       .  A
C861        F868   1.357       .  S
C862        C863   1.409       .  A
C863        C864   1.386       .  A
C863        F870   1.349       .  S
C864        C865   1.400       .  A
C864        F869   1.358   1_655  S
C865        C866   1.407       .  A
C866        F867   1.357       .  S
C871        C872   1.410       .  A
C871        C876   1.406       .  A
C871        F878   1.357       .  S
C872        C873   1.406       .  A
C873        C874   1.385       .  A
C873        F880   1.356       .  S
C874        C875   1.401       .  A
C874        F879   1.350       .  S
C875        C876   1.405       .  A
C876        F877   1.357       .  S
C881        C882   1.412       .  A
C881        C886   1.382       .  A
C881        F888   1.360       .  S
C882        C883   1.411       .  A
C883        C884   1.414       .  A
C883        F890   1.357       .  S
C884        C885   1.411       .  A
C884        F889   1.357       .  S
C885        C886   1.399       .  A
C886        F887   1.349       .  S
C891        C892   1.399       .  A
C891        C896   1.387       .  A
C891        F898   1.355       .  S
C892        C893   1.402       .  A
C893        C894   1.403       .  A
C893        F900   1.357       .  S
C894        C895   1.413       .  A
C894        F899   1.357       .  S
C895        C896   1.406       .  A
C896        F897   1.357       .  S
C901        C902   1.409       .  A
C901        C906   1.414   1_545  A
C901        F908   1.356       .  S
C902        C903   1.401       .  A
C903        C904   1.377   1_545  A
C903        F910   1.347       .  S
C904        C905   1.396       .  A
C904        F909   1.360       .  S
C905        C906   1.409       .  A
C906        F907   1.356       .  S
C911        C912   1.408       .  A
C911        C916   1.400       .  A
C911        F918   1.358       .  S
C912        C913   1.413       .  A
C913        C914   1.410       .  A
C913        F920   1.356       .  S
C914        C915   1.410       .  A
C914        F919   1.357       .  S
C915        C916   1.416       .  A
C916        F917   1.358       .  S
C921        C922   1.422       .  A
C921        C926   1.415       .  A
C921        F928   1.357       .  S
C922        C923   1.419       .  A
C923        C924   1.409       .  A
C923        F930   1.341       .  S
C924        C925   1.403       .  A
C924        F929   1.356       .  S
C925        C926   1.406       .  A
C926        F927   1.357       .  S
C931        C932   1.415       .  A
C931        C936   1.388       .  A
C931        F938   1.339       .  S
C932        C933   1.423       .  A
C933        C934   1.422       .  A
C933        F940   1.357       .  S
C934        C935   1.410       .  A
C934        F939   1.357       .  S
C935        C936   1.392       .  A
C936        F937   1.352       .  S
C941        C942   1.413       .  A
C941        C946   1.418       .  A
C941        F948   1.357       .  S
C942        C943   1.401       .  A
C943        C944   1.395       .  A
C943        F950   1.356       .  S
C944        C945   1.419       .  A
C944        F949   1.358       .  S
C945        C946   1.413       .  A
C946        F947   1.357       .  S
C951        C952   1.392       .  A
C951        C956   1.369   1_455  A
C951        F958   1.335       .  S
C952        C953   1.422       .  A
C953        C954   1.426   1_455  A
C953        F960   1.357       .  S
C954        C955   1.413       .  A
C954        F959   1.356       .  S
C955        C956   1.390       .  A
C956        F957   1.349       .  S
C961        C962   1.401       .  A
C961        C966   1.381       .  A
C961        F968   1.359       .  S
C962        C963   1.409       .  A
C963        C964   1.402       .  A
C963        F970   1.357       .  S
C964        C965   1.402       .  A
C964        F969   1.357       .  S
C965        C966   1.409       .  A
C966        F967   1.357       .  S
C971        C972   1.406       .  A
C971        C976   1.407       .  A
C971        F978   1.357       .  S
C972        C973   1.415       .  A
C973        C974   1.382       .  A
C973        F980   1.345       .  S
C974        C975   1.393       .  A
C974        F979   1.357       .  S
C975        C976   1.411       .  A
C976        F977   1.357       .  S
C981        C982   1.406       .  A
C981        C986   1.405       .  A
C981        F988   1.357       .  S
C982        C983   1.395       .  A
C983        C984   1.388       .  A
C983        F990   1.355       .  S
C984        C985   1.401       .  A
C984        F989   1.355       .  S
C985        C986   1.411       .  A
C986        F987   1.357       .  S
C991        C992   1.409       .  A
C991        C996   1.377       .  A
C991        F998   1.349       .  S
C992        C993   1.402       .  A
C993        C994   1.399       .  A
C993       F1000   1.357       .  S
C994        C995   1.410       .  A
C994        F999   1.358       .  S
C995        C996   1.394       .  A
C996        F997   1.355       .  S
C1001      C1002   1.389       .  A
C1001      C1006   1.370   1_565  A
C1001      F1008   1.363       .  S
C1002      C1003   1.408       .  A
C1003      C1004   1.416   1_565  A
C1003      F1010   1.356       .  S
C1004      C1005   1.415       .  A
C1004      F1009   1.356       .  S
C1005      C1006   1.406       .  A
C1006      F1007   1.345       .  S
C1011      C1012   1.432       .  A
C1011      C1016   1.434   1_655  A
C1011      F1018   1.355       .  S
C1012      C1013   1.399       .  A
C1013      C1014   1.369   1_655  A
C1013      F1020   1.338       .  S
C1014      C1015   1.375       .  A
C1014      F1019   1.354       .  S
C1015      C1016   1.427       .  A
C1016      F1017   1.353       .  S
