geometry optimzed in LAMMPS
_audit_creation_date              2020-12-01 
_audit_creation_method            'lammps2cif' 
_symmetry_space_group_name_H-M    'P1' 
_symmetry_Int_Tables_number       1 
_symmetry_cell_setting            triclinic 
loop_ 
_symmetry_equiv_pos_as_xyz 
  x,y,z 
_cell_length_a                    69.61106627 
_cell_length_b                    69.42803628625234 
_cell_length_c                    69.35672987408694 
_cell_angle_alpha                 89.9669352327388 
_cell_angle_beta                  90.18600298443326 
_cell_angle_gamma                 90.44471221564531 
loop_ 
_atom_site_label 
_atom_site_type_symbol 
_atom_site_fract_x 
_atom_site_fract_y 
_atom_site_fract_z 
_atom_site_charge 
C1          C  0.10093537  0.10695501  0.10762462     0.86200
C2          C  0.09059428  0.12114116  0.12129103    -0.54100
C3          C  0.10267075  0.13228702  0.13230898     0.09100
C4          C  0.12404729  0.12821631  0.12866251     0.20000
C5          C  0.11470045  0.11992048  0.09588949    -0.54800
C6          C  0.12695766  0.13102248  0.10681277     0.09200
C7          C  0.11425631  0.09540390  0.12107706    -0.54300
C8          C  0.12637144  0.10648056  0.13208376     0.09700
H9          H  0.07520690  0.12273298  0.12221283     0.14300
H10         H  0.13382031  0.13707345  0.13768520     0.00000
H11         H  0.11499113  0.11979780  0.08024631     0.14600
H12         H  0.11406045  0.07977872  0.12178979     0.14400
C13         C  0.88890399  0.10121860  0.88855547     0.86200
C14         C  0.89967945  0.11572671  0.87561213    -0.54100
C15         C  0.88797528  0.12775400  0.86538232     0.09100
C16         C  0.86649412  0.12397262  0.86875001     0.20000
C17         C  0.87556600  0.11379924  0.90103674    -0.54800
C18         C  0.86375500  0.12565826  0.89063385     0.09200
C19         C  0.87499032  0.09062773  0.87460122    -0.54300
C20         C  0.86340671  0.10257690  0.86421654     0.09700
H21         H  0.91524475  0.11664999  0.87500032     0.14300
H22         H  0.85699634  0.13356702  0.86027960     0.00000
H23         H  0.87539046  0.11318652  0.91667712     0.14600
H24         H  0.87410196  0.07521372  0.87264176     0.14400
C25         C  0.88823655  0.89158498  0.10431941     0.86200
C26         C  0.87431710  0.90375740  0.11639897    -0.54100
C27         C  0.86147430  0.89330721  0.12715963     0.09100
C28         C  0.86380206  0.87135975  0.12470369     0.20000
C29         C  0.89769757  0.87799438  0.11924553    -0.54800
C30         C  0.88490060  0.86740025  0.12991269     0.09200
C31         C  0.87518986  0.87818990  0.09229525    -0.54300
C32         C  0.86238491  0.86751032  0.10284844     0.09700
H33         H  0.87466470  0.91938364  0.11625479     0.14300
H34         H  0.85371070  0.86250412  0.13331069     0.00000
H35         H  0.91298018  0.87684453  0.12170134     0.14600
H36         H  0.87606776  0.87735866  0.07669502     0.14400
C37         C  0.10537883  0.89060209  0.88938616     0.86200
C38         C  0.09322401  0.87741837  0.87613917    -0.54100
C39         C  0.10375449  0.86584221  0.86429161     0.09100
C40         C  0.12554268  0.86864616  0.86657858     0.20000
C41         C  0.11916226  0.87664195  0.89998042    -0.54800
C42         C  0.12969701  0.86512817  0.88805273     0.09200
C43         C  0.11869614  0.90178452  0.87547434    -0.54300
C44         C  0.12913897  0.89031427  0.86338249     0.09700
H45         H  0.07762763  0.87709976  0.87638375     0.14300
H46         H  0.13396900  0.85930926  0.85686718     0.00000
H47         H  0.12116320  0.87607705  0.91541834     0.14600
H48         H  0.11942503  0.91740337  0.87499421     0.14400
C49         C  0.99771570  0.99725380  0.99675275    -0.02800
C50         C  0.75108662  0.75361863  0.55327167     0.79900
N51         N  0.76993156  0.74862783  0.55181740    -0.78400
C52         C  0.78378573  0.76235401  0.54965113     0.82300
N53         N  0.77861939  0.78110872  0.54894377    -0.78400
C54         C  0.75997576  0.78640505  0.55020689     0.82400
N55         N  0.74618906  0.77257972  0.55229610    -0.80100
C56         C  0.55017494  0.75125861  0.75145433     0.79900
N57         N  0.54969742  0.74627411  0.77047678    -0.78400
C58         C  0.54764723  0.75997995  0.78427806     0.82300
N59         N  0.54592318  0.77862313  0.77891240    -0.78400
C60         C  0.54611526  0.78392290  0.76013159     0.82400
N61         N  0.54825159  0.77015060  0.74636850    -0.80100
C62         C  0.44135385  0.74822495  0.24053844     0.79900
N63         N  0.44305983  0.76721079  0.24532625    -0.78400
C64         C  0.44651499  0.78071036  0.23157573     0.82300
N65         N  0.44831077  0.77508080  0.21301531    -0.78400
C66         C  0.44686054  0.75632341  0.20785205     0.82400
N67         N  0.44343264  0.74280987  0.22170694    -0.80100
C68         C  0.75364170  0.44028234  0.24327621     0.79900
N69         N  0.74822941  0.44262507  0.22446643    -0.78400
C70         C  0.76162884  0.44629869  0.21065311     0.82300
N71         N  0.78037255  0.44745587  0.21582382    -0.78400
C72         C  0.78604633  0.44520540  0.23435383     0.82400
N73         N  0.77260854  0.44171106  0.24810229    -0.80100
O74         O  0.50452022  0.73197269  0.96912368    -0.74800
O75         O  0.49198571  0.73123099  0.02247680    -0.74800
O76         O  0.47129483  0.73112219  0.98927731    -0.74800
O77         O  0.52520206  0.73285453  0.00221172    -0.74900
O78         O  0.52414936  0.76490988  0.00268388    -0.74800
O79         O  0.47093990  0.76319906  0.98928875    -0.74800
O80         O  0.49084868  0.76327743  0.02303273    -0.74800
O81         O  0.50425075  0.76405914  0.96902153    -0.74800
Ni82       Ni  0.49827804  0.73067532  0.99578190     1.25400
Ni83       Ni  0.49750663  0.76501194  0.99602160     1.25400
C84         C  0.50657332  0.74796678  0.96020614     0.87400
C85         C  0.48927054  0.74694056  0.03164684     0.87300
C86         C  0.46225530  0.74703709  0.98705591     0.87400
C87         C  0.53357035  0.74926297  0.00450237     0.87500
O88         O  0.73221355  0.50256437  0.97201617    -0.74800
O89         O  0.73107759  0.48588000  0.02444986    -0.74800
O90         O  0.73189703  0.52081579  0.00652164    -0.74800
O91         O  0.73201232  0.46779749  0.98978040    -0.74900
O92         O  0.76400062  0.46823354  0.99075379    -0.74800
O93         O  0.76388677  0.52068547  0.00712037    -0.74800
O94         O  0.76306678  0.48610104  0.02546021    -0.74800
O95         O  0.76421585  0.50269856  0.97248743    -0.74800
Ni96       Ni  0.73065772  0.49425932  0.99819655     1.25400
Ni97       Ni  0.76491386  0.49442911  0.99900731     1.25400
C98         C  0.74828576  0.50538821  0.96353349     0.87400
C99         C  0.74678791  0.48315840  0.03365779     0.87300
C100        C  0.74800687  0.52957068  0.00931440     0.87400
C101        C  0.74817975  0.45932655  0.98742389     0.87500
C102        C  0.74308363  0.74108194  0.04400263     0.79900
N103        N  0.72442051  0.74639961  0.04149229    -0.78400
C104        C  0.71072203  0.73310415  0.03691703     0.82300
N105        N  0.71587924  0.71444907  0.03480518    -0.78400
C106        C  0.73433133  0.70877043  0.03715680     0.82400
N107        N  0.74794681  0.72218829  0.04181178    -0.80100
C108        C  0.75423688  0.56073732  0.75697214     0.79900
N109        N  0.77306964  0.55923066  0.75173814    -0.78400
C110        C  0.78683633  0.55580896  0.76525709     0.82300
N111        N  0.78159363  0.55385639  0.78391451    -0.78400
C112        C  0.76304872  0.55516815  0.78945620     0.82400
N113        N  0.74932044  0.55856252  0.77590079    -0.80100
C114        C  0.23798684  0.75129169  0.44349846     0.79900
N115        N  0.24374732  0.77011803  0.44445259    -0.78400
C116        C  0.23086779  0.78417486  0.44848258     0.82300
N117        N  0.21228728  0.77922226  0.45159120    -0.78400
C118        C  0.20621481  0.76067562  0.45077134     0.82400
N119        N  0.21915781  0.74668555  0.44669184    -0.80100
O120        O  0.98575276  0.76254252  0.47024304    -0.74800
O121        O  0.00137276  0.76349281  0.52296309    -0.74800
O122        O  0.02008284  0.76309432  0.48871553    -0.74800
O123        O  0.96704028  0.76238191  0.50442200    -0.74900
O124        O  0.96747842  0.73030214  0.50466714    -0.74800
O125        O  0.02010341  0.73101308  0.48925618    -0.74800
O126        O  0.00164646  0.73141138  0.52359516    -0.74800
O127        O  0.98606629  0.73044999  0.47038751    -0.74800
Ni128      Ni  0.99354493  0.76401678  0.49657534     1.25400
Ni129      Ni  0.99382507  0.72965830  0.49700405     1.25400
C130        C  0.98340409  0.74645212  0.46154312     0.87400
C131        C  0.00414677  0.74770034  0.53203101     0.87300
C132        C  0.02882636  0.74704537  0.48635912     0.87400
C133        C  0.95850720  0.74613485  0.50709824     0.87500
O134        O  0.02031829  0.48897629  0.73100883    -0.74800
O135        O  0.96846257  0.50630891  0.73223341    -0.74800
O136        O  0.00315500  0.52392783  0.73169584    -0.74800
O137        O  0.98557196  0.47132710  0.73197772    -0.74900
O138        O  0.98642331  0.47137077  0.76409106    -0.74800
O139        O  0.00390672  0.52371267  0.76381057    -0.74800
O140        O  0.96901306  0.50626325  0.76435258    -0.74800
O141        O  0.02138442  0.48881627  0.76311300    -0.74800
Ni142      Ni  0.99435161  0.49762736  0.73060603     1.25400
Ni143      Ni  0.99521957  0.49752893  0.76499363     1.25400
C144        C  0.02944784  0.48592953  0.74674822     0.87400
C145        C  0.96017893  0.50935057  0.74837955     0.87300
C146        C  0.00625172  0.53256255  0.74777544     0.87400
C147        C  0.98316967  0.46264191  0.74813937     0.87500
C148        C  0.05216575  0.74153293  0.74021199     0.79900
N149        N  0.05043304  0.74652818  0.72126493    -0.78400
C150        C  0.04766002  0.73279468  0.70753136     0.82300
N151        N  0.04654465  0.71405829  0.71290249    -0.78400
C152        C  0.04795858  0.70879815  0.73165743     0.82400
N153        N  0.05073821  0.72259668  0.74532235    -0.80100
C154        C  0.23655284  0.43946676  0.75041498     0.79900
N155        N  0.24185866  0.44100901  0.76934250    -0.78400
C156        C  0.22836114  0.44384029  0.78320550     0.82300
N157        N  0.20968132  0.44526328  0.77795549    -0.78400
C158        C  0.20411164  0.44397761  0.75928537     0.82400
N159        N  0.21762736  0.44105162  0.74551863    -0.80100
C160        C  0.75462269  0.24361497  0.44717952     0.79900
N161        N  0.77330750  0.24916020  0.44988699    -0.78400
C162        C  0.78676646  0.23607937  0.45529516     0.82300
N163        N  0.78132072  0.21751660  0.45811754    -0.78400
C164        C  0.76289382  0.21165929  0.45554937     0.82400
N165        N  0.74955548  0.22477899  0.44997484    -0.80100
O166        O  0.76545703  0.99163762  0.47197033    -0.74800
O167        O  0.76329421  0.00458953  0.52537649    -0.74800
O168        O  0.76421335  0.97111252  0.50527970    -0.74800
O169        O  0.76380793  0.02514159  0.49217361    -0.74900
O170        O  0.73182853  0.02415408  0.49115103    -0.74800
O171        O  0.73225140  0.97063904  0.50360056    -0.74800
O172        O  0.73130367  0.00356622  0.52445820    -0.74800
O173        O  0.73348860  0.99115903  0.47034888    -0.74800
Ni174      Ni  0.76533119  0.99814541  0.49872690     1.25400
Ni175      Ni  0.73109183  0.99735361  0.49733585     1.25400
C176        C  0.74995049  0.98927857  0.46227411     0.87400
C177        C  0.74707024  0.00617495  0.53381197     0.87300
C178        C  0.74813677  0.96199664  0.50664142     0.87400
C179        C  0.74762041  0.03356987  0.48961708     0.87500
O180        O  0.48706048  0.02123771  0.72918187    -0.74800
O181        O  0.50332530  0.96882336  0.72950938    -0.74800
O182        O  0.46891752  0.98657735  0.72822921    -0.74800
O183        O  0.52164610  0.00357035  0.73105541    -0.74900
O184        O  0.51990199  0.00335985  0.76312401    -0.74800
O185        O  0.46796865  0.98595609  0.76033466    -0.74800
O186        O  0.50244447  0.96834600  0.76162747    -0.74800
O187        O  0.48536537  0.02094232  0.76125210    -0.74800
Ni188      Ni  0.49532699  0.99506603  0.72834441     1.25400
Ni189      Ni  0.49387901  0.99464701  0.76271087     1.25400
C190        C  0.48337642  0.02975469  0.74509166     0.87400
C191        C  0.50539930  0.95983706  0.74549156     0.87300
C192        C  0.45980015  0.98338393  0.74398435     0.87400
C193        C  0.52941296  0.00637661  0.74765997     0.87500
C194        C  0.73610093  0.05493005  0.74203190     0.79900
N195        N  0.74113958  0.05216234  0.72326251    -0.78400
C196        C  0.72750863  0.04820715  0.70971686     0.82300
N197        N  0.70885727  0.04690051  0.71516314    -0.78400
C198        C  0.70357977  0.04944216  0.73377695     0.82400
N199        N  0.71728721  0.05347783  0.74718422    -0.80100
C200        C  0.44103474  0.23819056  0.75024031     0.79900
N201        N  0.44070992  0.21913314  0.74543734    -0.78400
C202        C  0.44298849  0.20540378  0.75925241     0.82300
N203        N  0.44571762  0.21087234  0.77780305    -0.78400
C204        C  0.44636304  0.22970628  0.78282893     0.82400
N205        N  0.44402384  0.24334331  0.76897615    -0.80100
O206        O  0.26240104  0.50330231  0.02120154    -0.74800
O207        O  0.26171637  0.48703271  0.96847445    -0.74800
O208        O  0.26213179  0.52169717  0.98662980    -0.74800
O209        O  0.26168079  0.46872744  0.00297712    -0.74900
O210        O  0.22968811  0.46893561  0.00331117    -0.74800
O211        O  0.23013735  0.52163627  0.98681525    -0.74800
O212        O  0.22971872  0.48696971  0.96861527    -0.74800
O213        O  0.23040752  0.50360493  0.02153713    -0.74800
Ni214      Ni  0.26310779  0.49519488  0.99481990     1.25400
Ni215      Ni  0.22885389  0.49529612  0.99507957     1.25400
C216        C  0.24659216  0.50618435  0.03011224     0.87400
C217        C  0.24565848  0.48419780  0.95982136     0.87300
C218        C  0.24614318  0.53043080  0.98402754     0.87400
C219        C  0.24557737  0.46005011  0.00575443     0.87500
C220        C  0.25295216  0.74065445  0.94120843     0.79900
N221        N  0.27177649  0.74610829  0.94335839    -0.78400
C222        C  0.28548628  0.73266895  0.94696898     0.82300
N223        N  0.28017225  0.71398678  0.94868129    -0.78400
C224        C  0.26167823  0.70821132  0.94687252     0.82400
N225        N  0.24802267  0.72162009  0.94299950    -0.80100
O226        O  0.97022007  0.49166044  0.26352684    -0.74800
O227        O  0.02219737  0.51004054  0.26251643    -0.74800
O228        O  0.98708330  0.52701444  0.26239629    -0.74800
O229        O  0.00523054  0.47484631  0.26334656    -0.74900
O230        O  0.00442984  0.47421173  0.23123251    -0.74800
O231        O  0.98686404  0.52620202  0.23028760    -0.74800
O232        O  0.02183646  0.50921882  0.23040678    -0.74800
O233        O  0.96955762  0.49116851  0.23141111    -0.74800
Ni234      Ni  0.99619628  0.50093838  0.26409480     1.25400
Ni235      Ni  0.99565907  0.50019267  0.22970790     1.25400
C236        C  0.96128567  0.48835075  0.24768103     0.87400
C237        C  0.03071257  0.51245337  0.24633548     0.87300
C238        C  0.98392428  0.53519947  0.24610075     0.87400
C239        C  0.00778638  0.46592117  0.24737554     0.87500
C240        C  0.92990896  0.74099189  0.25474373     0.79900
N241        N  0.93215763  0.74548906  0.27376082    -0.78400
C242        C  0.93594133  0.73149776  0.28691451     0.82300
N243        N  0.93746539  0.71305220  0.28091117    -0.78400
C244        C  0.93542268  0.70821568  0.26212602     0.82400
N245        N  0.93171611  0.72228040  0.24898081    -0.80100
C246        C  0.24026776  0.55428668  0.23825373     0.79900
N247        N  0.24555448  0.55312583  0.21934343    -0.78400
C248        C  0.23207967  0.55046775  0.20531497     0.82300
N249        N  0.21335976  0.54892700  0.21036227    -0.78400
C250        C  0.20775675  0.54989067  0.22900446     0.82400
N251        N  0.22129859  0.55253684  0.24297676    -0.80100
O252        O  0.52576342  0.23347398  0.98700663    -0.74800
O253        O  0.47259171  0.23184258  0.00039311    -0.74800
O254        O  0.49233395  0.23274126  0.96688235    -0.74800
O255        O  0.50612059  0.23309404  0.02048328    -0.74900
O256        O  0.50568523  0.26518285  0.02016144    -0.74800
O257        O  0.49128608  0.26481190  0.96708790    -0.74800
O258        O  0.47167587  0.26390159  0.00077975    -0.74800
O259        O  0.52522931  0.26555161  0.98645582    -0.74800
Ni260      Ni  0.49921378  0.23166387  0.99369792     1.25400
Ni261      Ni  0.49843345  0.26601308  0.99363865     1.25400
C262        C  0.53433528  0.24964840  0.98447821     0.87400
C263        C  0.46325567  0.24747707  0.00273275     0.87300
C264        C  0.48946751  0.24877569  0.95816717     0.87400
C265        C  0.50843734  0.24930272  0.02908096     0.87500
C266        C  0.74293181  0.25135545  0.94121562     0.79900
N267        N  0.72376199  0.24702541  0.94194918    -0.78400
C268        C  0.71053933  0.26131756  0.94328197     0.82300
N269        N  0.71667039  0.27985960  0.94383146    -0.78400
C270        C  0.73557334  0.28447304  0.94327962     0.82400
N271        N  0.74872425  0.27016349  0.94207274    -0.80100
O272        O  0.47039469  0.99806732  0.22508230    -0.74800
O273        O  0.52385427  0.98606701  0.22599028    -0.74800
O274        O  0.49080836  0.96506039  0.22656562    -0.74800
O275        O  0.50342375  0.01920904  0.22505405    -0.74900
O276        O  0.50276306  0.02000394  0.25715380    -0.74800
O277        O  0.49101839  0.96622877  0.25866591    -0.74800
O278        O  0.52385637  0.98738127  0.25808821    -0.74800
O279        O  0.46994709  0.99875622  0.25719385    -0.74800
Ni280      Ni  0.49713507  0.99207924  0.22452108     1.25400
Ni281      Ni  0.49689601  0.99313256  0.25889937     1.25400
C282        C  0.46126876  0.00024576  0.24091363     0.87400
C283        C  0.53272638  0.98474038  0.24212395     0.87300
C284        C  0.48880604  0.95674396  0.24299273     0.87400
C285        C  0.50513821  0.02854143  0.24096825     0.87500
C286        C  0.74176070  0.94763379  0.25289789     0.79900
N287        N  0.74732117  0.95036893  0.27157192    -0.78400
C288        C  0.73405585  0.95377554  0.28549575     0.82300
N289        N  0.71520401  0.95438613  0.28056342    -0.78400
C290        C  0.70937272  0.95175011  0.26208726     0.82400
N291        N  0.72274407  0.94842239  0.24827735    -0.80100
C292        C  0.55426840  0.23746244  0.23657118     0.79900
N293        N  0.55230704  0.21837352  0.24100453    -0.78400
C294        C  0.54927455  0.20512334  0.22680084     0.82300
N295        N  0.54822349  0.21115143  0.20824906    -0.78400
C296        C  0.54999057  0.23001828  0.20359074     0.82400
N297        N  0.55294363  0.24314005  0.21781721    -0.80100
O298        O  0.23000364  0.98690818  0.51897524    -0.74800
O299        O  0.23048861  0.00464272  0.46692530    -0.74800
O300        O  0.23072283  0.96948229  0.48399814    -0.74800
O301        O  0.23043547  0.02211938  0.50188054    -0.74900
O302        O  0.26244796  0.02218849  0.50176863    -0.74800
O303        O  0.26272396  0.97004638  0.48491230    -0.74800
O304        O  0.26249546  0.00475216  0.46697131    -0.74800
O305        O  0.26200113  0.98747081  0.51972725    -0.74800
Ni306      Ni  0.22926326  0.99578269  0.49293241     1.25400
Ni307      Ni  0.26353867  0.99612851  0.49336347     1.25400
C308        C  0.24581591  0.98422554  0.52800404     0.87400
C309        C  0.24644826  0.00758344  0.45827583     0.87300
C310        C  0.24693187  0.96105892  0.48172700     0.87400
C311        C  0.24656309  0.03086591  0.50453369     0.87500
C312        C  0.25246353  0.93494730  0.73601722     0.79900
N313        N  0.24733793  0.93691687  0.71709071    -0.78400
C314        C  0.26096264  0.94026583  0.70340999     0.82300
N315        N  0.27962926  0.94155699  0.70883743    -0.78400
C316        C  0.28496468  0.93978412  0.72751495     0.82400
N317        N  0.27132954  0.93658383  0.74110866    -0.80100
O318        O  0.99125133  0.23079816  0.52594956    -0.74800
O319        O  0.00461474  0.23197368  0.47255565    -0.74800
O320        O  0.02462450  0.23022159  0.50619086    -0.74800
O321        O  0.97115560  0.23293379  0.49244079    -0.74900
O322        O  0.97295502  0.26498525  0.49333174    -0.74800
O323        O  0.02598342  0.26228044  0.50716865    -0.74800
O324        O  0.00622285  0.26402502  0.47345978    -0.74800
O325        O  0.99267323  0.26284862  0.52710405    -0.74800
Ni326      Ni  0.99785156  0.23033886  0.49923340     1.25400
Ni327      Ni  0.99951801  0.26466430  0.50030606     1.25400
C328        C  0.98984956  0.24655064  0.53540794     0.87400
C329        C  0.00754300  0.24814318  0.46412610     0.87300
C330        C  0.03407700  0.24589793  0.50910835     0.87400
C331        C  0.96327983  0.24948610  0.49052089     0.87500
C332        C  0.93737636  0.25383747  0.74260405     0.79900
N333        N  0.93862167  0.27290064  0.74722408    -0.78400
C334        C  0.94260966  0.28623883  0.73345570     0.82300
N335        N  0.94545655  0.28035082  0.71512971    -0.78400
C336        C  0.94445063  0.26153466  0.71015476     0.82400
N337        N  0.94039706  0.24820366  0.72398819    -0.80100
C338        C  0.24335080  0.23962457  0.54904959     0.79900
N339        N  0.24895993  0.22087332  0.54766097    -0.78400
C340        C  0.23568419  0.20662084  0.54524937     0.82300
N341        N  0.21689110  0.21122206  0.54410001    -0.78400
C342        C  0.21096309  0.22968818  0.54521271     0.82400
N343        N  0.22427872  0.24395161  0.54771190    -0.80100
C344        C  0.05370903  0.25865076  0.25532012     0.79900
N345        N  0.05053866  0.25366355  0.27409061    -0.78400
C346        C  0.04751770  0.26745688  0.28765591     0.82300
N347        N  0.04770392  0.28619746  0.28229040    -0.78400
C348        C  0.05066486  0.29147149  0.26375364     0.82400
N349        N  0.05359607  0.27763958  0.25023004    -0.80100
C350        C  0.25562068  0.05422048  0.25027345     0.79900
N351        N  0.27402578  0.05030817  0.24485111    -0.78400
C352        C  0.28742462  0.04540090  0.25831509     0.82300
N353        N  0.28219109  0.04433083  0.27707953    -0.78400
C354        C  0.26399504  0.04799964  0.28271508     0.82400
N355        N  0.25073404  0.05294347  0.26924039    -0.80100
C356        C  0.25364920  0.24982347  0.04571364     0.79900
N357        N  0.24888765  0.26883957  0.04449553    -0.78400
C358        C  0.26220304  0.28227156  0.03921052     0.82300
N359        N  0.28022859  0.27648582  0.03498205    -0.78400
C360        C  0.28535010  0.25773086  0.03600639     0.82400
N361        N  0.27200665  0.24437431  0.04152068    -0.80100
C362        C  0.38912401  0.39130247  0.60556712     0.86200
C363        C  0.40009380  0.37812169  0.61957823    -0.54100
C364        C  0.38875680  0.36575753  0.63005916     0.09100
C365        C  0.36716923  0.36802691  0.62553494     0.20000
C366        C  0.37684019  0.37741780  0.59317828    -0.54800
C367        C  0.36542395  0.36510182  0.60358377     0.09200
C368        C  0.37419907  0.40161456  0.61830341    -0.54300
C369        C  0.36272500  0.38947986  0.62877660     0.09700
H370        H  0.41561162  0.37876006  0.62098966     0.14300
H371        H  0.35750849  0.35833100  0.63372900     0.00000
H372        H  0.37738562  0.37722658  0.57753921     0.14600
H373        H  0.37240646  0.41704930  0.61903768     0.14400
C374        C  0.60216345  0.38616921  0.38806402     0.86200
C375        C  0.61570554  0.39758505  0.37472414    -0.54100
C376        C  0.62777236  0.38643660  0.36403729     0.09100
C377        C  0.62499196  0.36467126  0.36745642     0.20000
C378        C  0.59164295  0.37188846  0.37445714    -0.54800
C379        C  0.60348892  0.36072349  0.36352577     0.09200
C380        C  0.61564455  0.37322884  0.40007819    -0.54300
C381        C  0.62775500  0.36195514  0.38940009     0.09700
H382        H  0.61605403  0.41321914  0.37425599     0.14300
H383        H  0.63463780  0.35593959  0.35837003     0.00000
H384        H  0.57623780  0.37010490  0.37362563     0.14600
H385        H  0.61545758  0.37307210  0.41572050     0.14400
C386        C  0.60448717  0.60146276  0.60520901     0.86200
C387        C  0.61839682  0.59164693  0.61956076    -0.54100
C388        C  0.62879492  0.60418735  0.63072708     0.09100
C389        C  0.62442592  0.62544857  0.62649768     0.20000
C390        C  0.59219690  0.61472270  0.61788197    -0.54800
C391        C  0.60256930  0.62736038  0.62892944     0.09200
C392        C  0.61758443  0.61532685  0.59367889    -0.54300
C393        C  0.62818194  0.62798423  0.60472875     0.09700
H394        H  0.62062206  0.57630017  0.62061336     0.14300
H395        H  0.63255902  0.63527515  0.63608933     0.00000
H396        H  0.57659676  0.61432160  0.61783881     0.14600
H397        H  0.61805317  0.61510753  0.57805802     0.14400
C398        C  0.38648329  0.60281160  0.39224749     0.86200
C399        C  0.37327184  0.59161252  0.37824558    -0.54100
C400        C  0.36212216  0.60299538  0.36668069     0.09100
C401        C  0.36532303  0.62469438  0.37014141     0.20000
C402        C  0.39802590  0.61661880  0.37925835    -0.54800
C403        C  0.38710575  0.62803787  0.36754459     0.09200
C404        C  0.37266640  0.61622499  0.40334274    -0.54300
C405        C  0.36144827  0.62766541  0.39182698     0.09700
H406        H  0.37267557  0.57598876  0.37777377     0.14300
H407        H  0.35647163  0.63362146  0.36040100     0.00000
H408        H  0.41361223  0.61725293  0.37945002     0.14600
H409        H  0.37188723  0.61707948  0.41885929     0.14400
C410        C  0.49736584  0.49510706  0.49531584    -0.02800
C411        C  0.39963661  0.58944731  0.40410268    -0.03700
C412        C  0.39930573  0.58828827  0.42446543    -0.09400
C413        C  0.41186861  0.57607099  0.43448461    -0.17100
C414        C  0.42506368  0.56465921  0.42454357     0.25000
C415        C  0.42547901  0.56554932  0.40436958    -0.18800
C416        C  0.41290833  0.57771085  0.39430139    -0.07700
C417        C  0.43811662  0.55213463  0.43507737    -0.14100
C418        C  0.44890226  0.54197525  0.44435096    -0.13900
C419        C  0.46167466  0.53035885  0.45620506     0.24900
C420        C  0.47539593  0.53925234  0.46808049    -0.19300
C421        C  0.48716888  0.52828025  0.48025970    -0.07700
C422        C  0.48516316  0.50797390  0.48142093    -0.03800
C423        C  0.47207385  0.49918925  0.46836679    -0.09100
C424        C  0.46034315  0.51021423  0.45615232    -0.16800
H425        H  0.38947205  0.59658972  0.43298363     0.11400
H426        H  0.41127410  0.57554900  0.45008535     0.10700
H427        H  0.43554705  0.55684419  0.39637518     0.10600
H428        H  0.41361645  0.57806944  0.37870730     0.11100
H429        H  0.47701750  0.55478519  0.46796362     0.11200
H430        H  0.49790199  0.53599207  0.48850547     0.11200
H431        H  0.47054960  0.48365698  0.46806403     0.11300
H432        H  0.45007488  0.50299086  0.44681816     0.10100
C433        C  0.59204975  0.58827294  0.59227160    -0.03700
C434        C  0.59141976  0.56798956  0.59422129    -0.09400
C435        C  0.57945417  0.55666001  0.58242931    -0.17100
C436        C  0.56774804  0.56517626  0.56843154     0.25000
C437        C  0.56819153  0.58524286  0.56628997    -0.18800
C438        C  0.58012004  0.59663920  0.57810090    -0.07700
C439        C  0.55522644  0.55329285  0.55646991    -0.14100
C440        C  0.54498123  0.54306681  0.54655643    -0.13900
C441        C  0.53317619  0.53065242  0.53440636     0.24900
C442        C  0.51315067  0.53241265  0.53410302    -0.19300
C443        C  0.50191619  0.52074705  0.52188845    -0.07700
C444        C  0.51041006  0.50740860  0.50909595    -0.03800
C445        C  0.53057515  0.50501731  0.51059898    -0.09100
C446        C  0.54174592  0.51664926  0.52285409    -0.16800
H447        H  0.59972124  0.56052602  0.60495738     0.11400
H448        H  0.57923656  0.54117202  0.58436742     0.10700
H449        H  0.55921763  0.59212545  0.55556139     0.10600
H450        H  0.57999246  0.61212518  0.57622703     0.11100
H451        H  0.50618593  0.54288611  0.54324016     0.11200
H452        H  0.48647030  0.52248975  0.52200037     0.11200
H453        H  0.53799818  0.49401533  0.50263530     0.11300
H454        H  0.55716339  0.51466054  0.52332591     0.10100
C455        C  0.58962016  0.39956558  0.40044131    -0.03700
C456        C  0.56943138  0.40073806  0.39838656    -0.09400
C457        C  0.55863905  0.41330149  0.40979233    -0.17100
C458        C  0.56758873  0.42514942  0.42348622     0.25000
C459        C  0.58761370  0.42442126  0.42553566    -0.18800
C460        C  0.59848886  0.41185895  0.41410406    -0.07700
C461        C  0.55608343  0.43786308  0.43537469    -0.14100
C462        C  0.54582375  0.44798603  0.44516242    -0.13900
C463        C  0.53321028  0.45960586  0.45703387     0.24900
C464        C  0.53475144  0.47972317  0.45702577    -0.19300
C465        C  0.52288918  0.49083044  0.46890037    -0.07700
C466        C  0.50955053  0.48213731  0.48166363    -0.03800
C467        C  0.50740101  0.46184732  0.48054496    -0.09100
C468        C  0.51922230  0.45079189  0.46858457    -0.16800
H469        H  0.56161468  0.39235631  0.38788975     0.11400
H470        H  0.54319605  0.41378503  0.40786588     0.10700
H471        H  0.59484952  0.43355025  0.43598070     0.10600
H472        H  0.61394110  0.41168893  0.41595508     0.11100
H473        H  0.54522478  0.48686513  0.44791914     0.11200
H474        H  0.52453984  0.50635147  0.46862100     0.11200
H475        H  0.49652836  0.45425124  0.48866991     0.11300
H476        H  0.51742838  0.43527754  0.46837388     0.10100
C477        C  0.48447586  0.48284680  0.50917186    -0.03700
C478        C  0.49325087  0.47001088  0.52236315    -0.09400
C479        C  0.48230715  0.45861811  0.53500288    -0.17100
C480        C  0.46226068  0.45997130  0.53517216     0.25000
C481        C  0.45333713  0.47317010  0.52286777    -0.18800
C482        C  0.46423637  0.48463866  0.51025564    -0.07700
C483        C  0.45082053  0.44798761  0.54800634    -0.14100
C484        C  0.44085253  0.43808714  0.55845152    -0.13900
C485        C  0.42838905  0.42648620  0.57066070     0.24900
C486        C  0.41703026  0.43524483  0.58472133    -0.19300
C487        C  0.40444430  0.42422579  0.59609371    -0.07700
C488        C  0.40280705  0.40405888  0.59359165    -0.03800
C489        C  0.41485424  0.39537838  0.57981230    -0.09100
C490        C  0.42734443  0.40646082  0.56837926    -0.16800
H491        H  0.50872914  0.46857367  0.52260561     0.11400
H492        H  0.48952313  0.44870264  0.54461700     0.10700
H493        H  0.43786388  0.47472502  0.52310067     0.10600
H494        H  0.45655018  0.49505155  0.50171170     0.11100
H495        H  0.41784991  0.45068441  0.58688974     0.11200
H496        H  0.39640028  0.43177527  0.60692255     0.11200
H497        H  0.41443258  0.37992133  0.57774311     0.11300
H498        H  0.43613519  0.39938465  0.55769005     0.10100
C499        C  0.25785602  0.25503620  0.55286909    -0.03700
C500        C  0.27666525  0.25020739  0.55851050    -0.09400
C501        C  0.29013358  0.26456828  0.56307592    -0.17100
C502        C  0.28515034  0.28402595  0.56196484     0.25000
C503        C  0.26656206  0.28903903  0.55607889    -0.18800
C504        C  0.25299353  0.27466255  0.55159153    -0.07700
C505        C  0.29906042  0.29867092  0.56733764    -0.14100
C506        C  0.31105773  0.31027824  0.57253408    -0.13900
C507        C  0.32545178  0.32365469  0.57965601     0.24900
C508        C  0.32940475  0.34082483  0.56975313    -0.19300
C509        C  0.34275392  0.35411836  0.57720944    -0.07700
C510        C  0.35230279  0.35044961  0.59474437    -0.03800
C511        C  0.34862657  0.33291162  0.60428522    -0.09100
C512        C  0.33529934  0.31966155  0.59681676    -0.16800
H513        H  0.28092602  0.23529310  0.55975890     0.11400
H514        H  0.30442348  0.26046576  0.56766028     0.10700
H515        H  0.26249150  0.30404085  0.55514645     0.10600
H516        H  0.23868702  0.27891760  0.54724237     0.11100
H517        H  0.32193596  0.34409303  0.55643471     0.11200
H518        H  0.34513392  0.36751213  0.56955631     0.11200
H519        H  0.35604742  0.32937976  0.61754732     0.11300
H520        H  0.33253097  0.30636989  0.60455418     0.10100
C521        C  0.05455235  0.24527015  0.51492665    -0.03700
C522        C  0.06518612  0.26248808  0.51700143    -0.09400
C523        C  0.08448576  0.26207270  0.52254687    -0.17100
C524        C  0.09343751  0.24448125  0.52615553     0.25000
C525        C  0.08298422  0.22725894  0.52424785    -0.18800
C526        C  0.06365140  0.22763019  0.51866176    -0.07700
C527        C  0.11346075  0.24408734  0.53135181    -0.14100
C528        C  0.13035183  0.24311195  0.53508317    -0.13900
C529        C  0.15049416  0.24018876  0.53863974     0.24900
C530        C  0.15744919  0.22140665  0.53935387    -0.19300
C531        C  0.17702389  0.21815635  0.54180300    -0.07700
C532        C  0.19010287  0.23367912  0.54354723    -0.03800
C533        C  0.18296392  0.25257958  0.54318998    -0.09100
C534        C  0.16323211  0.25580389  0.54071425    -0.16800
H535        H  0.05862766  0.27631819  0.51426559     0.11400
H536        H  0.09244827  0.27547560  0.52392903     0.10700
H537        H  0.08980102  0.21354476  0.52698443     0.10600
H538        H  0.05585197  0.21414327  0.51728131     0.11100
H539        H  0.14774670  0.20922031  0.53776326     0.11200
H540        H  0.18188087  0.20338110  0.54210135     0.11200
H541        H  0.19260731  0.26481918  0.54452893     0.11300
H542        H  0.15795872  0.27043236  0.54016809     0.10100
C543        C  0.01235697  0.24840222  0.44332927    -0.03700
C544        C  0.01521214  0.23105939  0.43324345    -0.09400
C545        C  0.01956675  0.23127603  0.41356942    -0.17100
C546        C  0.02108025  0.24879554  0.40370272     0.25000
C547        C  0.01823924  0.26611217  0.41359214    -0.18800
C548        C  0.01392699  0.26593968  0.43327123    -0.07700
C549        C  0.02568680  0.24912602  0.38347983    -0.14100
C550        C  0.02969861  0.25058462  0.36663603    -0.13900
C551        C  0.03460803  0.25434424  0.34683331     0.24900
C552        C  0.03830857  0.27329086  0.34109444    -0.19300
C553        C  0.04277339  0.27738129  0.32194270    -0.07700
C554        C  0.04362038  0.26255539  0.30810558    -0.03800
C555        C  0.04011622  0.24346096  0.31402102    -0.09100
C556        C  0.03559218  0.23939503  0.33330202    -0.16800
H557        H  0.01411086  0.21730888  0.44054784     0.11400
H558        H  0.02175916  0.21779015  0.40606800     0.10700
H559        H  0.01937520  0.27976488  0.40608831     0.10600
H560        H  0.01174814  0.27952549  0.44057454     0.11100
H561        H  0.03763134  0.28496778  0.35142972     0.11200
H562        H  0.04545747  0.29225111  0.31799897     0.11200
H563        H  0.04060038  0.23174477  0.30374219     0.11300
H564        H  0.03275058  0.22465174  0.33761728     0.10100
C565        C  0.98490044  0.24574790  0.55615923    -0.03700
C566        C  0.98170259  0.26271662  0.56669990    -0.09400
C567        C  0.97657620  0.26177173  0.58617189    -0.17100
C568        C  0.97463194  0.24389131  0.59536949     0.25000
C569        C  0.97810112  0.22696347  0.58509427    -0.18800
C570        C  0.98318806  0.22786377  0.56563015    -0.07700
C571        C  0.96874362  0.24299793  0.61524012    -0.14100
C572        C  0.96364054  0.24370420  0.63182671    -0.13900
C573        C  0.95784182  0.24748856  0.65135755     0.24900
C574        C  0.95468540  0.23257300  0.66466715    -0.19300
C575        C  0.94988936  0.23689634  0.68384118    -0.07700
C576        C  0.94827293  0.25619413  0.68980595    -0.03800
C577        C  0.95106302  0.27093260  0.67608896    -0.09100
C578        C  0.95580625  0.26660377  0.65712002    -0.16800
H579        H  0.98296061  0.27669637  0.55986845     0.11400
H580        H  0.97396666  0.27498505  0.59401310     0.10700
H581        H  0.97671077  0.21305968  0.59207408     0.10600
H582        H  0.98567791  0.21452684  0.55798251     0.11100
H583        H  0.95617992  0.21768211  0.66030947     0.11200
H584        H  0.94780391  0.22523023  0.69400613     0.11200
H585        H  0.94983305  0.28596573  0.68000060     0.11300
H586        H  0.95814222  0.27825541  0.64696391     0.10100
C587        C  0.24724042  0.05130195  0.51061225    -0.03700
C588        C  0.26446136  0.06191460  0.50870645    -0.09400
C589        C  0.26545550  0.08121094  0.51428926    -0.17100
C590        C  0.24931988  0.09019040  0.52199072     0.25000
C591        C  0.23209594  0.07977901  0.52400649    -0.18800
C592        C  0.23102378  0.06044132  0.51828866    -0.07700
C593        C  0.25039831  0.11014762  0.52755858    -0.14100
C594        C  0.25046705  0.12694278  0.53198931    -0.13900
C595        C  0.24815348  0.14688918  0.53705447     0.24900
C596        C  0.23111762  0.15251516  0.54591581    -0.19300
C597        C  0.22756262  0.17194037  0.54923005    -0.07700
C598        C  0.24104738  0.18612033  0.54381441    -0.03800
C599        C  0.25857730  0.18038334  0.53570324    -0.09100
C600        C  0.26205997  0.16080215  0.53221524    -0.16800
H601        H  0.27717994  0.05534988  0.50272137     0.11400
H602        H  0.27881503  0.08913114  0.51256774     0.10700
H603        H  0.21949397  0.08662202  0.52994331     0.10600
H604        H  0.21760892  0.05263216  0.51998649     0.11100
H605        H  0.22028793  0.14190369  0.54976094     0.11200
H606        H  0.21400251  0.17590797  0.55567240     0.11200
H607        H  0.26914553  0.19102763  0.53131377     0.11300
H608        H  0.27530616  0.15658016  0.52530018     0.10100
C609        C  0.24609728  0.01418598  0.43796288    -0.03700
C610        C  0.22843184  0.01645632  0.42827312    -0.09400
C611        C  0.22792786  0.02221472  0.40897385    -0.17100
C612        C  0.24504109  0.02583970  0.39909572     0.25000
C613        C  0.26268405  0.02383105  0.40863364    -0.18800
C614        C  0.26323312  0.01804282  0.42795269    -0.07700
C615        C  0.24462528  0.03115922  0.37905308    -0.14100
C616        C  0.24577292  0.03513262  0.36217924    -0.13900
C617        C  0.24983845  0.03924560  0.34228141     0.24900
C618        C  0.26898798  0.04079781  0.33651111    -0.19300
C619        C  0.27347212  0.04402396  0.31721446    -0.07700
C620        C  0.25883380  0.04579053  0.30329643    -0.03800
C621        C  0.23954200  0.04454717  0.30922967    -0.09100
C622        C  0.23507307  0.04121447  0.32865250    -0.16800
H623        H  0.21496076  0.01361873  0.43554268     0.11400
H624        H  0.21420398  0.02369008  0.40172796     0.10700
H625        H  0.27602925  0.02658923  0.40108362     0.10600
H626        H  0.27704098  0.01647255  0.43498975     0.11100
H627        H  0.28051428  0.03929166  0.34693416     0.11200
H628        H  0.28846978  0.04497900  0.31320129     0.11200
H629        H  0.22796263  0.04573643  0.29884407     0.11300
H630        H  0.22017688  0.03997201  0.33298310     0.10100
C631        C  0.24516823  0.97734291  0.54823915    -0.03700
C632        C  0.22740633  0.97318920  0.55707904    -0.09400
C633        C  0.22664436  0.96706966  0.57627964    -0.17100
C634        C  0.24359461  0.96499552  0.58692609     0.25000
C635        C  0.26133811  0.96889327  0.57821547    -0.18800
C636        C  0.26214356  0.97500409  0.55900024    -0.07700
C637        C  0.24289447  0.95925038  0.60688555    -0.14100
C638        C  0.24380239  0.95492603  0.62371818    -0.13900
C639        C  0.24755930  0.95043523  0.64365548     0.24900
C640        C  0.26660839  0.94925048  0.64986324    -0.19300
C641        C  0.27079602  0.94562015  0.66917548    -0.07700
C642        C  0.25596943  0.94312025  0.68276604    -0.03800
C643        C  0.23677673  0.94404722  0.67638950    -0.09100
C644        C  0.23260347  0.94771905  0.65691144    -0.16800
H645        H  0.21405457  0.97476527  0.54920166     0.11400
H646        H  0.21283517  0.96409339  0.58284805     0.10700
H647        H  0.27456294  0.96733892  0.58633032     0.10600
H648        H  0.27602562  0.97803895  0.55263769     0.11100
H649        H  0.27829802  0.95133196  0.63976901     0.11200
H650        H  0.28575377  0.94496995  0.67343814     0.11200
H651        H  0.22504244  0.94222151  0.68645106     0.11300
H652        H  0.21777228  0.94863096  0.65224950     0.10100
C653        C  0.59611316  0.34643705  0.34903664    -0.03700
C654        C  0.57889270  0.34971875  0.33881474    -0.09400
C655        C  0.57215380  0.33640623  0.32511338    -0.17100
C656        C  0.58246651  0.31957027  0.32139542     0.25000
C657        C  0.59951976  0.31615284  0.33152264    -0.18800
C658        C  0.60628274  0.32945582  0.34515515    -0.07700
C659        C  0.57581932  0.30588174  0.30706855    -0.14100
C660        C  0.57100675  0.29414527  0.29504886    -0.13900
C661        C  0.56604988  0.27992677  0.28057241     0.24900
C662        C  0.56604463  0.26026612  0.28516773    -0.19300
C663        C  0.56196668  0.24643776  0.27097958    -0.07700
C664        C  0.55790650  0.25206155  0.25190200    -0.03800
C665        C  0.55773700  0.27188687  0.24748619    -0.09100
C666        C  0.56175700  0.28566975  0.26170177    -0.16800
H667        H  0.57078044  0.36274792  0.34111048     0.11400
H668        H  0.55897070  0.33932031  0.31733585     0.10700
H669        H  0.60765408  0.30318688  0.32885143     0.10600
H670        H  0.61936179  0.32622545  0.35274853     0.11100
H671        H  0.56938180  0.25560011  0.29969643     0.11200
H672        H  0.56226236  0.23134795  0.27490842     0.11200
H673        H  0.55460027  0.27679999  0.23300232     0.11300
H674        H  0.56170475  0.30081117  0.25791168     0.10100
C675        C  0.51010943  0.04938484  0.24090370    -0.03700
C676        C  0.50981944  0.06003186  0.25819946    -0.09400
C677        C  0.51517915  0.07950043  0.25842349    -0.17100
C678        C  0.52096193  0.08864158  0.24140015     0.25000
C679        C  0.52105707  0.07825256  0.22407852    -0.18800
C680        C  0.51563615  0.05877680  0.22380366    -0.07700
C681        C  0.52690132  0.10861791  0.24164552    -0.14100
C682        C  0.53187289  0.12531655  0.24084240    -0.13900
C683        C  0.53747180  0.14517031  0.23792058     0.24900
C684        C  0.54169381  0.15152571  0.21928044    -0.19300
C685        C  0.54603385  0.17088637  0.21587524    -0.07700
C686        C  0.54625618  0.18434005  0.23109135    -0.03800
C687        C  0.54253709  0.17776301  0.24992151    -0.09100
C688        C  0.53811143  0.15828373  0.25329561    -0.16800
H689        H  0.50554355  0.05329726  0.27161891     0.11400
H690        H  0.51494551  0.08737417  0.27190331     0.10700
H691        H  0.52545524  0.08517906  0.21078733     0.10600
H692        H  0.51603058  0.05102178  0.21027217     0.11100
H693        H  0.54130645  0.14154988  0.20726931     0.11200
H694        H  0.54894201  0.17533865  0.20119893     0.11200
H695        H  0.54254464  0.18772211  0.26192879     0.11300
H696        H  0.53487505  0.15353264  0.26781281     0.10100
C697        C  0.44047278  0.00457271  0.24026702    -0.03700
C698        C  0.43089718  0.00654069  0.22245219    -0.09400
C699        C  0.41136321  0.01107847  0.22180138    -0.17100
C700        C  0.40114101  0.01366916  0.23891969     0.25000
C701        C  0.41046501  0.01145142  0.25669374    -0.18800
C702        C  0.42999038  0.00692926  0.25738704    -0.07700
C703        C  0.38120851  0.01903883  0.23843175    -0.14100
C704        C  0.36465817  0.02387415  0.23971276    -0.13900
C705        C  0.34530240  0.02968186  0.24388897     0.24900
C706        C  0.33956783  0.03091733  0.26311519    -0.19300
C707        C  0.32087868  0.03629460  0.26765497    -0.07700
C708        C  0.30746918  0.04053644  0.25300853    -0.03800
C709        C  0.31339575  0.03948722  0.23365361    -0.09100
C710        C  0.33223633  0.03406569  0.22912865    -0.16800
H711        H  0.43852270  0.00474125  0.20899761     0.11400
H712        H  0.40429257  0.01273220  0.20796645     0.10700
H713        H  0.40267049  0.01339800  0.27004091     0.10600
H714        H  0.43689170  0.00542982  0.27131566     0.11100
H715        H  0.34955294  0.02762265  0.27465795     0.11200
H716        H  0.31695170  0.03698163  0.28273014     0.11200
H717        H  0.30346195  0.04263738  0.22205104     0.11300
H718        H  0.33656407  0.03319376  0.21416919     0.10100
C719        C  0.55344223  0.98002107  0.24222789    -0.03700
C720        C  0.56406120  0.98052168  0.25949947    -0.09400
C721        C  0.58355842  0.97585442  0.25958956    -0.17100
C722        C  0.59270412  0.97055933  0.24246803     0.25000
C723        C  0.58230811  0.97011751  0.22517532    -0.18800
C724        C  0.56280590  0.97484453  0.22503316    -0.07700
C725        C  0.61272468  0.96552224  0.24284201    -0.14100
C726        C  0.62949694  0.96164370  0.24458699    -0.13900
C727        C  0.64940314  0.95783147  0.24863871     0.24900
C728        C  0.66277975  0.95614113  0.23370216    -0.19300
C729        C  0.68229926  0.95366944  0.23796828    -0.07700
C730        C  0.68864146  0.95298555  0.25725089    -0.03800
C731        C  0.67495409  0.95420039  0.27210297    -0.09100
C732        C  0.65552275  0.95659923  0.26780935    -0.16800
H733        H  0.55731725  0.98451947  0.27294698     0.11400
H734        H  0.59149400  0.97629835  0.27305011     0.10700
H735        H  0.58924266  0.96606156  0.21183313     0.10600
H736        H  0.55504060  0.97430039  0.21148795     0.11100
H737        H  0.65818198  0.95706821  0.21879555     0.11200
H738        H  0.69243837  0.95274812  0.22620527     0.11200
H739        H  0.67925464  0.95357026  0.28710677     0.11300
H740        H  0.64529713  0.95784410  0.27948428     0.10100
C741        C  0.51453608  0.24986704  0.04949787    -0.03700
C742        C  0.51831432  0.26764729  0.05857204    -0.09400
C743        C  0.52410141  0.26830449  0.07785543    -0.17100
C744        C  0.52617464  0.25122803  0.08829281     0.25000
C745        C  0.52259057  0.23346646  0.07938106    -0.18800
C746        C  0.51682455  0.23276272  0.06008160    -0.07700
C747        C  0.53174885  0.25178047  0.10822271    -0.14100
C748        C  0.53611166  0.25047971  0.12496868    -0.13900
C749        C  0.54085557  0.24605938  0.14461757     0.24900
C750        C  0.54024788  0.26018429  0.15900648    -0.19300
C751        C  0.54383962  0.25519195  0.17825001    -0.07700
C752        C  0.54787416  0.23598251  0.18322415    -0.03800
C753        C  0.54886153  0.22206223  0.16853389    -0.09100
C754        C  0.54538685  0.22708693  0.14940364    -0.16800
H755        H  0.51680131  0.28107599  0.05078586     0.11400
H756        H  0.52687895  0.28211116  0.08462872     0.10700
H757        H  0.52418510  0.22015986  0.08738163     0.10600
H758        H  0.51409425  0.21886699  0.05349533     0.11100
H759        H  0.53669114  0.27492224  0.15541273     0.11200
H760        H  0.54291178  0.26620272  0.18925154     0.11200
H761        H  0.55206450  0.20717860  0.17183091     0.11300
H762        H  0.54589524  0.21606571  0.13835836     0.10100
C763        C  0.44246751  0.24628184  0.00754871    -0.03700
C764        C  0.43286095  0.22832766  0.00743094    -0.09400
C765        C  0.41323699  0.22701569  0.01163392    -0.17100
C766        C  0.40285376  0.24358858  0.01609638     0.25000
C767        C  0.41228460  0.26151555  0.01635416    -0.18800
C768        C  0.43193159  0.26287703  0.01208597    -0.07700
C769        C  0.38246049  0.24232495  0.01991402    -0.14100
C770        C  0.36528844  0.24246084  0.02257264    -0.13900
C771        C  0.34486444  0.24518348  0.02502653     0.24900
C772        C  0.33671237  0.26236884  0.01863525    -0.19300
C773        C  0.31729903  0.26602052  0.02176618    -0.07700
C774        C  0.30551954  0.25253119  0.03139183    -0.03800
C775        C  0.31360711  0.23493262  0.03723635    -0.09100
C776        C  0.33321837  0.23131910  0.03413248    -0.16800
H777        H  0.44047110  0.21525258  0.00392226     0.11400
H778        H  0.40614624  0.21307249  0.01128640     0.10700
H779        H  0.40441483  0.27447883  0.01973272     0.10600
H780        H  0.43884926  0.27689782  0.01231604     0.11100
H781        H  0.34547727  0.27317178  0.01149227     0.11200
H782        H  0.31159275  0.27963769  0.01684573     0.11200
H783        H  0.30495550  0.22425747  0.04466958     0.11300
H784        H  0.33934026  0.21790586  0.03911647     0.10100
C785        C  0.55495391  0.24963929  0.97906197    -0.03700
C786        C  0.56565328  0.23254995  0.98052096    -0.09400
C787        C  0.58483743  0.23205213  0.97463763    -0.17100
C788        C  0.59364863  0.24858020  0.96712726     0.25000
C789        C  0.58324578  0.26575843  0.96590668    -0.18800
C790        C  0.56403679  0.26631989  0.97189095    -0.07700
C791        C  0.61338055  0.24794813  0.96082904    -0.14100
C792        C  0.63003296  0.24826680  0.95597330    -0.13900
C793        C  0.65002126  0.25086257  0.95109631     0.24900
C794        C  0.65705259  0.26951977  0.94818894    -0.19300
C795        C  0.67659383  0.27269596  0.94508003    -0.07700
C796        C  0.68960181  0.25723397  0.94485716    -0.03800
C797        C  0.68235685  0.23838052  0.94711219    -0.09100
C798        C  0.66265062  0.23522723  0.95025812    -0.16800
H799        H  0.55916880  0.21948682  0.98614115     0.11400
H800        H  0.59275331  0.21872561  0.97582750     0.10700
H801        H  0.58994760  0.27869168  0.96021907     0.10600
H802        H  0.55621635  0.27968144  0.97058829     0.11100
H803        H  0.64746199  0.28172792  0.94876703     0.11200
H804        H  0.68152031  0.28741260  0.94325307     0.11200
H805        H  0.69193518  0.22616875  0.94696384     0.11300
H806        H  0.65735714  0.22068341  0.95246870     0.10100
C807        C  0.25501007  0.55779727  0.25353598    -0.03700
C808        C  0.27431863  0.56152584  0.24864120    -0.09400
C809        C  0.28805572  0.56542281  0.26296758    -0.17100
C810        C  0.28279936  0.56561153  0.28244421     0.25000
C811        C  0.26368697  0.56170444  0.28748616    -0.18800
C812        C  0.24990637  0.55784309  0.27318420    -0.07700
C813        C  0.29685273  0.57040116  0.29716679    -0.14100
C814        C  0.30838849  0.57512643  0.30942996    -0.13900
C815        C  0.32178607  0.58172731  0.32407467     0.24900
C816        C  0.31779775  0.59837106  0.33468320    -0.19300
C817        C  0.33080096  0.60510781  0.34862368    -0.07700
C818        C  0.34807657  0.59531455  0.35222495    -0.03800
C819        C  0.35190756  0.57847015  0.34165646    -0.09100
C820        C  0.33887694  0.57176551  0.32765916    -0.16800
H821        H  0.27881417  0.56166295  0.23371219     0.11400
H822        H  0.30276030  0.56847172  0.25882111     0.10700
H823        H  0.25937812  0.56182578  0.30248165     0.10600
H824        H  0.23523163  0.55501266  0.27754132     0.11100
H825        H  0.30461996  0.60619511  0.33215126     0.11200
H826        H  0.32719054  0.61789320  0.35672414     0.11200
H827        H  0.36514896  0.57070071  0.34391963     0.11300
H828        H  0.34220360  0.55889406  0.31954591     0.10100
C829        C  0.18700770  0.54782501  0.23358132    -0.03700
C830        C  0.17331724  0.54902979  0.21862165    -0.09400
C831        C  0.15382110  0.54609037  0.22229338    -0.17100
C832        C  0.14757118  0.54185642  0.24095114     0.25000
C833        C  0.16097612  0.54092638  0.25606372    -0.18800
C834        C  0.18059964  0.54396438  0.25242554    -0.07700
C835        C  0.12745421  0.53792095  0.24417694    -0.14100
C836        C  0.11051029  0.53424646  0.24537534    -0.13900
C837        C  0.09032085  0.52938994  0.24570264     0.24900
C838        C  0.08111177  0.52553965  0.26320476    -0.19300
C839        C  0.06165996  0.52029199  0.26343267    -0.07700
C840        C  0.05113320  0.51874990  0.24611499    -0.03800
C841        C  0.06048120  0.52280358  0.22860122    -0.09100
C842        C  0.07992396  0.52810061  0.22841821    -0.16800
H843        H  0.17765532  0.55210739  0.20395289     0.11400
H844        H  0.14362391  0.54687644  0.21048289     0.10700
H845        H  0.15630052  0.53762113  0.27058300     0.10600
H846        H  0.19075063  0.54288321  0.26423119     0.11100
H847        H  0.08900044  0.52644144  0.27666988     0.11200
H848        H  0.05493903  0.51721305  0.27716248     0.11200
H849        H  0.05281504  0.52176966  0.21502662     0.11300
H850        H  0.08689135  0.53103078  0.21476922     0.10100
C851        C  0.01474389  0.44581860  0.24742971    -0.03700
C852        C  0.01501386  0.43507056  0.23022013    -0.09400
C853        C  0.02166823  0.41612818  0.23015362    -0.17100
C854        C  0.02822069  0.40769211  0.24723855     0.25000
C855        C  0.02802868  0.41825428  0.26443357    -0.18800
C856        C  0.02130342  0.43719027  0.26455553    -0.07700
C857        C  0.03467806  0.38804995  0.24726637    -0.14100
C858        C  0.03947308  0.37142676  0.24821338    -0.13900
C859        C  0.04423383  0.35151336  0.25119263     0.24900
C860        C  0.05027454  0.34553617  0.26945226    -0.19300
C861        C  0.05308385  0.32603118  0.27321128    -0.07700
C862        C  0.04994599  0.31215785  0.25872343    -0.03800
C863        C  0.04465850  0.31830764  0.24014790    -0.09100
C864        C  0.04170025  0.33791992  0.23644077    -0.16800
H865        H  0.00999119  0.44125666  0.21680177     0.11400
H866        H  0.02164489  0.40804996  0.21679140     0.10700
H867        H  0.03301015  0.41182623  0.27776381     0.10600
H868        H  0.02132413  0.44508621  0.27801556     0.11100
H869        H  0.05228778  0.35591001  0.28096759     0.11200
H870        H  0.05731145  0.32176660  0.28762894     0.11200
H871        H  0.04203741  0.30793529  0.22876695     0.11300
H872        H  0.03694957  0.34241194  0.22225724     0.10100
C873        C  0.97672112  0.55524645  0.24533916    -0.03700
C874        C  0.97408309  0.56450094  0.22744760    -0.09400
C875        C  0.96727786  0.58338379  0.22657092    -0.17100
C876        C  0.96296444  0.59330088  0.24353410     0.25000
C877        C  0.96545500  0.58421176  0.26140536    -0.18800
C878        C  0.97229190  0.56531907  0.26232618    -0.07700
C879        C  0.95635041  0.61291439  0.24273693    -0.14100
C880        C  0.95125542  0.62947009  0.24359313    -0.13900
C881        C  0.94586472  0.64908683  0.24746027     0.24900
C882        C  0.94202944  0.65439130  0.26646400    -0.19300
C883        C  0.93809498  0.67350144  0.27096950    -0.07700
C884        C  0.93792146  0.68777178  0.25652051    -0.03800
C885        C  0.94121914  0.68228345  0.23729208    -0.09100
C886        C  0.94524986  0.66300908  0.23279999    -0.16800
H887        H  0.97733733  0.55717975  0.21408433     0.11400
H888        H  0.96545623  0.59026278  0.21266607     0.10700
H889        H  0.96218474  0.59176598  0.27464707     0.10600
H890        H  0.97410111  0.55862016  0.27631079     0.11100
H891        H  0.94244614  0.64377935  0.27792347     0.11200
H892        H  0.93547846  0.67711403  0.28591441     0.11200
H893        H  0.94123624  0.69292204  0.22587014     0.11300
H894        H  0.94823539  0.65905368  0.21801160     0.10100
C895        C  0.24718627  0.51264156  0.05051806    -0.03700
C896        C  0.23035996  0.51842243  0.06002095    -0.09400
C897        C  0.23112978  0.52481607  0.07916252    -0.17100
C898        C  0.24868412  0.52546608  0.08910357     0.25000
C899        C  0.26546054  0.51960343  0.07981945    -0.18800
C900        C  0.26474128  0.51327522  0.06067446    -0.07700
C901        C  0.24935920  0.53188845  0.10888762    -0.14100
C902        C  0.24868517  0.53687376  0.12555615    -0.13900
C903        C  0.24540175  0.54204433  0.14541352     0.24900
C904        C  0.26017002  0.54130684  0.15921067    -0.19300
C905        C  0.25615364  0.54473466  0.17874386    -0.07700
C906        C  0.23727647  0.54876523  0.18463896    -0.03800
C907        C  0.22276696  0.55010776  0.17050721    -0.09100
C908        C  0.22681033  0.54678955  0.15112348    -0.16800
H909        H  0.21663132  0.51813649  0.05263641     0.11400
H910        H  0.21802196  0.52925428  0.08621286     0.10700
H911        H  0.27910944  0.51993098  0.08736857     0.10600
H912        H  0.27795389  0.50884999  0.05383982     0.11100
H913        H  0.27464483  0.53763656  0.15495467     0.11200
H914        H  0.26762831  0.54359800  0.18925128     0.11200
H915        H  0.20810912  0.55337875  0.17444336     0.11300
H916        H  0.21527309  0.54745384  0.14061919     0.10100
C917        C  0.24528173  0.43947295  0.01166783    -0.03700
C918        C  0.22774675  0.42975498  0.01496459    -0.09400
C919        C  0.22748473  0.41024180  0.02013760    -0.17100
C920        C  0.24471702  0.40015087  0.02210080     0.25000
C921        C  0.26221313  0.40971988  0.01893354    -0.18800
C922        C  0.26251570  0.42921335  0.01377539    -0.07700
C923        C  0.24459900  0.37991726  0.02698149    -0.14100
C924        C  0.24587959  0.36291478  0.03048537    -0.13900
C925        C  0.24959044  0.34272687  0.03372401     0.24900
C926        C  0.26853514  0.33624781  0.03325073    -0.19300
C927        C  0.27250131  0.31668484  0.03532393    -0.07700
C928        C  0.25756493  0.30311958  0.03794990    -0.03800
C929        C  0.23852992  0.30976579  0.03885347    -0.09100
C930        C  0.23457405  0.32946648  0.03668791    -0.16800
H931        H  0.21420952  0.43719223  0.01345406     0.11400
H932        H  0.21384477  0.40301241  0.02249662     0.10700
H933        H  0.27565387  0.40207164  0.02034787     0.10600
H934        H  0.27625008  0.43620336  0.01131579     0.11100
H935        H  0.28028935  0.34632165  0.03100875     0.11200
H936        H  0.28735162  0.31220601  0.03470579     0.11200
H937        H  0.22671193  0.29974303  0.04087001     0.11300
H938        H  0.21982519  0.33430600  0.03707963     0.10100
C939        C  0.24602887  0.55094925  0.97785404    -0.03700
C940        C  0.22853924  0.56082843  0.97575264    -0.09400
C941        C  0.22833504  0.58026760  0.97037773    -0.17100
C942        C  0.24557526  0.59016728  0.96696525     0.25000
C943        C  0.26305249  0.58042963  0.96882167    -0.18800
C944        C  0.26329804  0.56097399  0.97422130    -0.07700
C945        C  0.24540550  0.61041299  0.96209343    -0.14100
C946        C  0.24627298  0.62747422  0.95864423    -0.13900
C947        C  0.24957454  0.64779493  0.95543548     0.24900
C948        C  0.26783355  0.65541131  0.95910853    -0.19300
C949        C  0.27155369  0.67495046  0.95624374    -0.07700
C950        C  0.25704190  0.68743454  0.94966416    -0.03800
C951        C  0.23862541  0.67972692  0.94600860    -0.09100
C952        C  0.23493065  0.65998053  0.94886052    -0.16800
H953        H  0.21497409  0.55358825  0.97842244     0.11400
H954        H  0.21472068  0.58761384  0.96904016     0.10700
H955        H  0.27651503  0.58792250  0.96625363     0.10600
H956        H  0.27700169  0.55383258  0.97566492     0.11100
H957        H  0.27927559  0.64620941  0.96423625     0.11200
H958        H  0.28590764  0.68024484  0.95932974     0.11200
H959        H  0.22716050  0.68889177  0.94091771     0.11300
H960        H  0.22069833  0.65424426  0.94596864     0.10100
C961        C  0.39657445  0.35112781  0.64388351    -0.03700
C962        C  0.38513317  0.34372558  0.65892889    -0.09400
C963        C  0.39227670  0.32986478  0.67165831    -0.17100
C964        C  0.41099124  0.32301016  0.66960568     0.25000
C965        C  0.42254633  0.33015779  0.65471787    -0.18800
C966        C  0.41542529  0.34405755  0.64195483    -0.07700
C967        C  0.41816176  0.30853076  0.68269050    -0.14100
C968        C  0.42352411  0.29635631  0.69390978    -0.13900
C969        C  0.42909248  0.28181253  0.70769700     0.24900
C970        C  0.42897933  0.26232575  0.70248713    -0.19300
C971        C  0.43328483  0.24814128  0.71617298    -0.07700
C972        C  0.43770710  0.25324054  0.73534161    -0.03800
C973        C  0.43822939  0.27291977  0.74030005    -0.09100
C974        C  0.43393595  0.28706055  0.72658919    -0.16800
H975        H  0.37064762  0.34859217  0.66112658     0.11400
H976        H  0.38315127  0.32445454  0.68310393     0.10700
H977        H  0.43703425  0.32488727  0.65287360     0.10600
H978        H  0.42463050  0.34890526  0.63037218     0.11100
H979        H  0.42526084  0.25806267  0.68791331     0.11200
H980        H  0.43279110  0.23317694  0.71180277     0.11200
H981        H  0.44165307  0.27742673  0.75486156     0.11300
H982        H  0.43409584  0.30208220  0.73081776     0.10100
C983        C  0.48404309  0.24888658  0.93754153    -0.03700
C984        C  0.47940117  0.26628455  0.92822889    -0.09400
C985        C  0.47456676  0.26644254  0.90865435    -0.17100
C986        C  0.47435138  0.24925071  0.89816286     0.25000
C987        C  0.47879890  0.23187534  0.90732818    -0.18800
C988        C  0.48359463  0.23166844  0.92689753    -0.07700
C989        C  0.46949369  0.24926084  0.87801131    -0.14100
C990        C  0.46529129  0.24778331  0.86121667    -0.13900
C991        C  0.46000797  0.24377638  0.84157127     0.24900
C992        C  0.46074448  0.25817949  0.82743554    -0.19300
C993        C  0.45585671  0.25382928  0.80830347    -0.07700
C994        C  0.45032269  0.23497820  0.80315073    -0.03800
C995        C  0.44942338  0.22072804  0.81757715    -0.09100
C996        C  0.45422731  0.22511366  0.83660449    -0.16800
H997        H  0.47952375  0.27978307  0.93604495     0.11400
H998        H  0.47105632  0.27995314  0.90170774     0.10700
H999        H  0.47860439  0.21847580  0.89932473     0.10600
H1000       H  0.48707350  0.21805877  0.93364128     0.11100
H1001       H  0.46522820  0.27268693  0.83116056     0.11200
H1002       H  0.45677936  0.26508288  0.79752348     0.11200
H1003       H  0.44513685  0.20609119  0.81416865     0.11300
H1004       H  0.45357468  0.21387518  0.84744112     0.10100
C1005       C  0.47676342  0.05001053  0.74467539    -0.03700
C1006       C  0.47393816  0.05958443  0.72697775    -0.09400
C1007       C  0.46790402  0.07876191  0.72656630    -0.17100
C1008       C  0.46459860  0.08863645  0.74380419     0.25000
C1009       C  0.46725925  0.07920873  0.76145599    -0.18800
C1010       C  0.47327430  0.06003407  0.76190906    -0.07700
C1011       C  0.45877005  0.10851280  0.74351101    -0.14100
C1012       C  0.45427702  0.12524477  0.74439129    -0.13900
C1013       C  0.44957944  0.14521555  0.74727243     0.24900
C1014       C  0.44360838  0.15132373  0.76547882    -0.19300
C1015       C  0.44067650  0.17085579  0.76905697    -0.07700
C1016       C  0.44364396  0.18463850  0.75444482    -0.03800
C1017       C  0.44883805  0.17833861  0.73592815    -0.09100
C1018       C  0.45190304  0.15871446  0.73240232    -0.16800
H1019       H  0.47644117  0.05228929  0.71343134     0.11400
H1020       H  0.46590606  0.08590121  0.71281736     0.10700
H1021       H  0.46476460  0.08671672  0.77489706     0.10600
H1022       H  0.47528688  0.05310576  0.77575141     0.11100
H1023       H  0.44171630  0.14103162  0.77708528     0.11200
H1024       H  0.43652078  0.17521382  0.78343514     0.11200
H1025       H  0.45131634  0.18861568  0.72443549     0.11300
H1026       H  0.45655467  0.15414208  0.71824781     0.10100
C1027       C  0.54958238  0.01320272  0.74923807    -0.03700
C1028       C  0.56039496  0.01741283  0.73266635    -0.09400
C1029       C  0.57945577  0.02372546  0.73432479    -0.17100
C1030       C  0.58797275  0.02591310  0.75252527     0.25000
C1031       C  0.57731457  0.02188102  0.76911260    -0.18800
C1032       C  0.55824304  0.01559136  0.76749780    -0.07700
C1033       C  0.60779742  0.03180859  0.75393515    -0.14100
C1034       C  0.62456380  0.03618490  0.75301351    -0.13900
C1035       C  0.64433068  0.04057304  0.74873726     0.24900
C1036       C  0.65814308  0.04241890  0.76337730    -0.19300
C1037       C  0.67745925  0.04575428  0.75864763    -0.07700
C1038       C  0.68311554  0.04714021  0.73921077    -0.03800
C1039       C  0.66900760  0.04555951  0.72471014    -0.09100
C1040       C  0.64981809  0.04232023  0.72945609    -0.16800
H1041       H  0.55416211  0.01578128  0.71843168     0.11400
H1042       H  0.58761011  0.02678201  0.72138302     0.10700
H1043       H  0.58376149  0.02347567  0.78326771     0.10600
H1044       H  0.55032655  0.01250002  0.78056720     0.11100
H1045       H  0.65404506  0.04103286  0.77837155     0.11200
H1046       H  0.68797266  0.04684737  0.77014365     0.11200
H1047       H  0.67278430  0.04663562  0.70961291     0.11300
H1048       H  0.63925745  0.04090317  0.71801711     0.10100
C1049       C  0.43957307  0.97670240  0.74363066    -0.03700
C1050       C  0.42906444  0.97583934  0.72630278    -0.09400
C1051       C  0.40976639  0.97002406  0.72640391    -0.17100
C1052       C  0.40082740  0.96495786  0.74377777     0.25000
C1053       C  0.41124226  0.96553632  0.76100808    -0.18800
C1054       C  0.43046272  0.97136989  0.76095701    -0.07700
C1055       C  0.38092274  0.95933979  0.74396331    -0.14100
C1056       C  0.36420758  0.95479120  0.74330007    -0.13900
C1057       C  0.34441074  0.94958656  0.74033255     0.24900
C1058       C  0.33061196  0.95281547  0.75462446    -0.19300
C1059       C  0.31118220  0.94888767  0.75084808    -0.07700
C1060       C  0.30545746  0.94195027  0.73265596    -0.03800
C1061       C  0.31952185  0.93828889  0.71865047    -0.09100
C1062       C  0.33884121  0.94203229  0.72249747    -0.16800
H1063       H  0.43566778  0.97984866  0.71275187     0.11400
H1064       H  0.40178941  0.96959028  0.71296826     0.10700
H1065       H  0.40447720  0.96159432  0.77451009     0.10600
H1066       H  0.43815990  0.97176805  0.77454499     0.11100
H1067       H  0.33480522  0.95872335  0.76847939     0.11200
H1068       H  0.30061356  0.95193991  0.76183353     0.11200
H1069       H  0.31554983  0.93280411  0.70456228     0.11300
H1070       H  0.34940714  0.93945245  0.71136936     0.10100
C1071       C  0.73975005  0.95693020  0.30591367    -0.03700
C1072       C  0.75918532  0.95802724  0.31157041    -0.09400
C1073       C  0.76412362  0.96133890  0.33093568    -0.17100
C1074       C  0.74969525  0.96353251  0.34480376     0.25000
C1075       C  0.73041197  0.96234820  0.33927548    -0.18800
C1076       C  0.72546352  0.95909721  0.32005946    -0.07700
C1077       C  0.75419332  0.96729772  0.36474791    -0.14100
C1078       C  0.75527941  0.97081558  0.38175756    -0.13900
C1079       C  0.75408936  0.97534708  0.40199722     0.24900
C1080       C  0.73629602  0.98006188  0.41003183    -0.19300
C1081       C  0.73486833  0.98449703  0.42964908    -0.07700
C1082       C  0.75127596  0.98435710  0.44151254    -0.03800
C1083       C  0.76911986  0.97959617  0.43329794    -0.09100
C1084       C  0.77049535  0.97508709  0.41368692    -0.16800
H1085       H  0.77053197  0.95646251  0.30105845     0.11400
H1086       H  0.77912617  0.96226585  0.33505382     0.10700
H1087       H  0.71912698  0.96403554  0.34985773     0.10600
H1088       H  0.71036151  0.95832024  0.31633265     0.11100
H1089       H  0.72349585  0.98032315  0.40110644     0.11200
H1090       H  0.72095926  0.98815923  0.43548519     0.11200
H1091       H  0.78203478  0.97929578  0.44203471     0.11300
H1092       H  0.78433572  0.97143467  0.40765832     0.10100
C1093       C  0.73263137  0.04469275  0.68926142    -0.03700
C1094       C  0.75184809  0.04239579  0.68345282    -0.09400
C1095       C  0.75616680  0.03787409  0.66423202    -0.17100
C1096       C  0.74134474  0.03571118  0.65064309     0.25000
C1097       C  0.72230259  0.03841926  0.65624805    -0.18800
C1098       C  0.71796536  0.04286668  0.67533650    -0.07700
C1099       C  0.74525336  0.03037586  0.63096763    -0.14100
C1100       C  0.74659017  0.02580682  0.61423620    -0.13900
C1101       C  0.74677963  0.02054807  0.59412720     0.24900
C1102       C  0.76357514  0.02273332  0.58331625    -0.19300
C1103       C  0.76362281  0.01800359  0.56372282    -0.07700
C1104       C  0.74680867  0.01112285  0.55459866    -0.03800
C1105       C  0.72998689  0.00894685  0.56557337    -0.09100
C1106       C  0.73000723  0.01358094  0.58522644    -0.16800
H1107       H  0.76347241  0.04370737  0.69379277     0.11400
H1108       H  0.77099163  0.03584960  0.66004008     0.10700
H1109       H  0.71072285  0.03686342  0.64586964     0.10600
H1110       H  0.70302666  0.04466774  0.67919129     0.11100
H1111       H  0.77661930  0.02816381  0.59000503     0.11200
H1112       H  0.77680887  0.01990466  0.55567684     0.11200
H1113       H  0.71686789  0.00357837  0.55900620     0.11300
H1114       H  0.71690983  0.01182450  0.59346119     0.10100
C1115       C  0.64241560  0.34868763  0.39802432    -0.03700
C1116       C  0.64857901  0.33235201  0.38780904    -0.09400
C1117       C  0.66232261  0.31994105  0.39554485    -0.17100
C1118       C  0.67041805  0.32358540  0.41365104     0.25000
C1119       C  0.66454787  0.33983202  0.42402862    -0.18800
C1120       C  0.65065849  0.35227521  0.41630453    -0.07700
C1121       C  0.68487903  0.31067084  0.42119360    -0.14100
C1122       C  0.69699373  0.29929269  0.42630034    -0.13900
C1123       C  0.71148121  0.28533338  0.43155210     0.24900
C1124       C  0.73015979  0.29137055  0.43628773    -0.19300
C1125       C  0.74422189  0.27785022  0.44119911    -0.07700
C1126       C  0.73982864  0.25800327  0.44152278    -0.03800
C1127       C  0.72103258  0.25207548  0.43661592    -0.09100
C1128       C  0.70702208  0.26561788  0.43164922    -0.16800
H1129       H  0.64277246  0.32887596  0.37385336     0.11400
H1130       H  0.66668992  0.30746890  0.38730825     0.10700
H1131       H  0.67076736  0.34295058  0.43802988     0.10600
H1132       H  0.64667718  0.36485837  0.42452533     0.11100
H1133       H  0.73386987  0.30655323  0.43619798     0.11200
H1134       H  0.75849222  0.28298324  0.44488911     0.11200
H1135       H  0.71711288  0.23695288  0.43659378     0.11300
H1136       H  0.69268502  0.26069074  0.42790002     0.10100
C1137       C  0.74690504  0.05443976  0.48494316    -0.03700
C1138       C  0.76364102  0.06590115  0.48533383    -0.09400
C1139       C  0.76275086  0.08562282  0.48119349    -0.17100
C1140       C  0.74516977  0.09418916  0.47653317     0.25000
C1141       C  0.72843366  0.08290237  0.47608309    -0.18800
C1142       C  0.72927528  0.06319388  0.48027417    -0.07700
C1143       C  0.74448438  0.11453722  0.47223341    -0.14100
C1144       C  0.74550356  0.13161636  0.46894451    -0.13900
C1145       C  0.74923943  0.15185520  0.46571889     0.20500
C1146       C  0.73593461  0.16360992  0.45617502    -0.19300
C1147       C  0.74014662  0.18317247  0.45294369    -0.07700
C1148       C  0.75778110  0.19113442  0.45912406    -0.03800
C1149       C  0.77094984  0.17913766  0.46873384    -0.09100
C1150       C  0.76668616  0.15974482  0.47201537    -0.16800
H1151       H  0.77739995  0.05966571  0.48894803     0.11400
H1152       H  0.77580743  0.09421000  0.48163016     0.10700
H1153       H  0.71473732  0.08931970  0.47250872     0.10600
H1154       H  0.71609726  0.05481229  0.47982721     0.11100
H1155       H  0.72238227  0.15765859  0.45116904     0.11200
H1156       H  0.72974504  0.19197415  0.44544271     0.11200
H1157       H  0.78462605  0.18471983  0.47380595     0.11300
H1158       H  0.77710232  0.15084514  0.47940914     0.10100
C1159       C  0.94278850  0.25089624  0.48494673    -0.03700
C1160       C  0.93528900  0.26850665  0.47834851    -0.09400
C1161       C  0.91590437  0.26998768  0.47321338    -0.17100
C1162       C  0.90373454  0.25393680  0.47471382     0.25000
C1163       C  0.91108104  0.23635345  0.48123281    -0.18800
C1164       C  0.93049024  0.23480322  0.48625150    -0.07700
C1165       C  0.88365990  0.25536361  0.46980241    -0.14100
C1166       C  0.86666116  0.25465823  0.46636326    -0.13900
C1167       C  0.84654980  0.25060112  0.46328492     0.24900
C1168       C  0.84006688  0.23164201  0.46535730    -0.19300
C1169       C  0.82069855  0.22711727  0.46279981    -0.07700
C1170       C  0.80730829  0.24149531  0.45804968    -0.03800
C1171       C  0.81390708  0.26061647  0.45595431    -0.09100
C1172       C  0.83345627  0.26514050  0.45857882    -0.16800
H1173       H  0.94442531  0.28113613  0.47707373     0.11400
H1174       H  0.91040778  0.28365299  0.46816015     0.10700
H1175       H  0.90177566  0.22383506  0.48249062     0.10600
H1176       H  0.93581179  0.22109128  0.49134937     0.11100
H1177       H  0.85002885  0.22027888  0.46902241     0.11200
H1178       H  0.81627767  0.21223464  0.46453875     0.11200
H1179       H  0.80401184  0.27202564  0.45232908     0.11300
H1180       H  0.83832456  0.27990988  0.45697947     0.10100
C1181       C  0.34722862  0.39640034  0.64180848    -0.03700
C1182       C  0.33614491  0.41262821  0.63703102    -0.09400
C1183       C  0.32184025  0.41917628  0.64956986    -0.17100
C1184       C  0.31844544  0.40963299  0.66705671     0.25000
C1185       C  0.32928846  0.39341188  0.67179414    -0.18800
C1186       C  0.34351874  0.38685619  0.65928334    -0.07700
C1187       C  0.30408532  0.41645993  0.68035721    -0.14100
C1188       C  0.29237419  0.42145105  0.69214976    -0.13900
C1189       C  0.27846498  0.42665905  0.70663410     0.24900
C1190       C  0.28443100  0.43113940  0.72542987    -0.19300
C1191       C  0.27087869  0.43552093  0.73964347    -0.07700
C1192       C  0.25110649  0.43551334  0.73525795    -0.03800
C1193       C  0.24530176  0.43120352  0.71624607    -0.09100
C1194       C  0.25886394  0.42677181  0.70209825    -0.16800
H1195       H  0.33841923  0.42016038  0.62354873     0.11400
H1196       H  0.31350082  0.43170612  0.64566164     0.10700
H1197       H  0.32686722  0.38591418  0.68528373     0.10600
H1198       H  0.35191872  0.37458276  0.66358288     0.11100
H1199       H  0.29955814  0.43107902  0.72915273     0.11200
H1200       H  0.27589453  0.43880148  0.75407437     0.11200
H1201       H  0.23023761  0.43098544  0.71231239     0.11300
H1202       H  0.25403131  0.42327098  0.68764503     0.10100
C1203       C  0.23342663  0.44563112  0.80394515    -0.03700
C1204       C  0.21890711  0.44353571  0.81791753    -0.09400
C1205       C  0.22281819  0.44670783  0.83739983    -0.17100
C1206       C  0.24128989  0.45204976  0.84336458     0.25000
C1207       C  0.25602894  0.45370595  0.82968854    -0.18800
C1208       C  0.25215021  0.45042016  0.81006653    -0.07700
C1209       C  0.24461312  0.45648917  0.86344007    -0.14100
C1210       C  0.24570337  0.46058153  0.88034526    -0.13900
C1211       C  0.24574838  0.46594710  0.90045970     0.24900
C1212       C  0.26310020  0.46929638  0.91017922    -0.19300
C1213       C  0.26306504  0.47509059  0.92951011    -0.07700
C1214       C  0.24563681  0.47767116  0.93942552    -0.03800
C1215       C  0.22826914  0.47404626  0.92959378    -0.09100
C1216       C  0.22834545  0.46823498  0.91026140    -0.16800
H1217       H  0.20436193  0.43968148  0.81378582     0.11400
H1218       H  0.21130006  0.44532655  0.84779766     0.10700
H1219       H  0.27040469  0.45785623  0.83413642     0.10600
H1220       H  0.26360710  0.45218735  0.79967699     0.11100
H1221       H  0.27666203  0.46757497  0.90278005     0.11200
H1222       H  0.27670295  0.47768878  0.93663552     0.11200
H1223       H  0.21461520  0.47580657  0.93679124     0.11300
H1224       H  0.21480878  0.46567231  0.90290973     0.10100
C1225       C  0.04950479  0.47892773  0.74577147    -0.03700
C1226       C  0.06016500  0.47537697  0.76264572    -0.09400
C1227       C  0.07911811  0.46887720  0.76148627    -0.17100
C1228       C  0.08766053  0.46582575  0.74348509     0.25000
C1229       C  0.07712854  0.46917980  0.72663795    -0.18800
C1230       C  0.05820126  0.47566986  0.72775319    -0.07700
C1231       C  0.10740837  0.45984801  0.74240017    -0.14100
C1232       C  0.12417505  0.45558758  0.74294422    -0.13900
C1233       C  0.14415230  0.45150883  0.74639190     0.24900
C1234       C  0.15743724  0.45059717  0.73126037    -0.19300
C1235       C  0.17700608  0.44776500  0.73524647    -0.07700
C1236       C  0.18343301  0.44593424  0.75443007    -0.03800
C1237       C  0.16982684  0.44654168  0.76939959    -0.09100
C1238       C  0.15042110  0.44929281  0.76539615    -0.16800
H1239       H  0.05390839  0.47769530  0.77671994     0.11400
H1240       H  0.08716486  0.46636883  0.77463742     0.10700
H1241       H  0.08358344  0.46692016  0.71263420     0.10600
H1242       H  0.05041336  0.47821030  0.71446527     0.11100
H1243       H  0.15273357  0.45235314  0.71646470     0.11200
H1244       H  0.18709368  0.44737771  0.72340433     0.11200
H1245       H  0.17415049  0.44508034  0.78433552     0.11300
H1246       H  0.14030446  0.44999436  0.77721673     0.10100
C1247       C  0.97673639  0.44223869  0.74849579    -0.03700
C1248       C  0.97337017  0.43281617  0.76617406    -0.09400
C1249       C  0.96773954  0.41344067  0.76658454    -0.17100
C1250       C  0.96539717  0.40321062  0.74936548     0.25000
C1251       C  0.96859322  0.41246842  0.73170595    -0.18800
C1252       C  0.97420308  0.43185513  0.73125192    -0.07700
C1253       C  0.95994082  0.38316782  0.74972783    -0.14100
C1254       C  0.95567539  0.36632425  0.74883375    -0.13900
C1255       C  0.95114730  0.34633941  0.74550865     0.24900
C1256       C  0.94903045  0.33988958  0.72655395    -0.19300
C1257       C  0.94571364  0.32044060  0.72280977    -0.07700
C1258       C  0.94448971  0.30701425  0.73799592    -0.03800
C1259       C  0.94606133  0.31365691  0.75710330    -0.09100
C1260       C  0.94944654  0.33325268  0.76082753    -0.16800
H1261       H  0.97516685  0.44038019  0.77971642     0.11400
H1262       H  0.96530981  0.40642302  0.78032906     0.10700
H1263       H  0.96683882  0.40467051  0.71827826     0.10600
H1264       H  0.97669731  0.43865230  0.71741967     0.11100
H1265       H  0.95025966  0.34987624  0.71459659     0.11200
H1266       H  0.94440165  0.31591364  0.70792202     0.11200
H1267       H  0.94518560  0.30369107  0.76908907     0.11300
H1268       H  0.95104928  0.33812708  0.77558270     0.10100
C1269       C  0.01240655  0.55305739  0.74794708    -0.03700
C1270       C  0.01501283  0.56324727  0.73060302    -0.09400
C1271       C  0.02051821  0.58267099  0.73087286    -0.17100
C1272       C  0.02347513  0.59218970  0.74844525     0.25000
C1273       C  0.02094339  0.58217928  0.76577085    -0.18800
C1274       C  0.01544679  0.56275730  0.76554348    -0.07700
C1275       C  0.02891310  0.61226161  0.74859891    -0.14100
C1276       C  0.03326332  0.62909408  0.74762254    -0.13900
C1277       C  0.03820118  0.64904693  0.74450128     0.24900
C1278       C  0.03450509  0.66301671  0.75857754    -0.19300
C1279       C  0.03836603  0.68251600  0.75479607    -0.07700
C1280       C  0.04573112  0.68820644  0.73679467    -0.03800
C1281       C  0.04974178  0.67399918  0.72295160    -0.09100
C1282       C  0.04606281  0.65459496  0.72681110    -0.16800
H1283       H  0.01273985  0.55624627  0.71682741     0.11400
H1284       H  0.02240574  0.59028852  0.71736330     0.10700
H1285       H  0.02315329  0.58939428  0.77945606     0.10600
H1286       H  0.01350792  0.55537249  0.77916235     0.11100
H1287       H  0.02833434  0.65888819  0.77230444     0.11200
H1288       H  0.03497722  0.69316324  0.76564456     0.11200
H1289       H  0.05550510  0.67791900  0.70898956     0.11300
H1290       H  0.04899473  0.64393884  0.71581683     0.10100
C1291       C  0.97759399  0.74656644  0.44102844    -0.03700
C1292       C  0.97676941  0.72938881  0.43032707    -0.09400
C1293       C  0.97126446  0.72970463  0.41092926    -0.17100
C1294       C  0.96648901  0.74714987  0.40205130     0.25000
C1295       C  0.96735571  0.76430469  0.41254209    -0.18800
C1296       C  0.97289575  0.76403978  0.43189841    -0.07700
C1297       C  0.96041366  0.74735253  0.38225762    -0.14100
C1298       C  0.95518997  0.74644665  0.36572598    -0.13900
C1299       C  0.94916383  0.74324277  0.34617508     0.24900
C1300       C  0.94742295  0.75857046  0.33315437    -0.19300
C1301       C  0.94246682  0.75496214  0.31388680    -0.07700
C1302       C  0.93933750  0.73595840  0.30751583    -0.03800
C1303       C  0.94062931  0.72077691  0.32092877    -0.09100
C1304       C  0.94552037  0.72441199  0.34006851    -0.16800
H1305       H  0.98038821  0.71574137  0.43691690     0.11400
H1306       H  0.97064422  0.71634094  0.40288040     0.10700
H1307       H  0.96367258  0.77786794  0.40579145     0.10600
H1308       H  0.97338936  0.77752392  0.43972946     0.11100
H1309       H  0.95020405  0.77322473  0.33780382     0.11200
H1310       H  0.94161074  0.76693288  0.30391625     0.11200
H1311       H  0.93817980  0.70597467  0.31659972     0.11300
H1312       H  0.94676907  0.71246588  0.35005176     0.10100
C1313       C  0.01037854  0.74845664  0.55246423    -0.03700
C1314       C  0.01434047  0.73145723  0.56270288    -0.09400
C1315       C  0.02027389  0.73229438  0.58196969    -0.17100
C1316       C  0.02231183  0.75009194  0.59127739     0.25000
C1317       C  0.01844743  0.76709572  0.58121209    -0.18800
C1318       C  0.01253186  0.76630232  0.56193490    -0.07700
C1319       C  0.02807112  0.75071714  0.61123412    -0.14100
C1320       C  0.03258009  0.74969903  0.62801111    -0.13900
C1321       C  0.03751903  0.74613740  0.64787161     0.24900
C1322       C  0.03633885  0.76073485  0.66176133    -0.19300
C1323       C  0.04021015  0.75665502  0.68119280    -0.07700
C1324       C  0.04512438  0.73787202  0.68691578    -0.03800
C1325       C  0.04661613  0.72345384  0.67274102    -0.09100
C1326       C  0.04286647  0.72757646  0.65341183    -0.16800
H1327       H  0.01286498  0.71751596  0.55584305     0.11400
H1328       H  0.02321199  0.71903495  0.58964082     0.10700
H1329       H  0.01994187  0.78094921  0.58826605     0.10600
H1330       H  0.00960557  0.77967386  0.55447653     0.11100
H1331       H  0.03214447  0.77515616  0.65763135     0.11200
H1332       H  0.03884189  0.76802773  0.69176526     0.11200
H1333       H  0.05047351  0.70886631  0.67659836     0.11300
H1334       H  0.04383077  0.71616840  0.64280659     0.10100
C1335       C  0.34675461  0.64138079  0.39950288    -0.03700
C1336       C  0.34115372  0.65756304  0.38865892    -0.09400
C1337       C  0.32733886  0.67030137  0.39557564    -0.17100
C1338       C  0.31869666  0.66715424  0.41346670     0.25000
C1339       C  0.32403920  0.65113233  0.42446666    -0.18800
C1340       C  0.33791924  0.63833585  0.41755533    -0.07700
C1341       C  0.30433096  0.68041324  0.42028511    -0.14100
C1342       C  0.29253058  0.69218041  0.42501930    -0.13900
C1343       C  0.27882625  0.70692119  0.42988257     0.24900
C1344       C  0.25986499  0.70199064  0.43458219    -0.19300
C1345       C  0.24657953  0.71637570  0.43901771    -0.07700
C1346       C  0.25206936  0.73595860  0.43884387    -0.03800
C1347       C  0.27117453  0.74073651  0.43407537    -0.09100
C1348       C  0.28440380  0.72633692  0.42961633    -0.16800
H1349       H  0.34743038  0.66066358  0.37485093     0.11400
H1350       H  0.32337402  0.68264327  0.38689997     0.10700
H1351       H  0.31739865  0.64845004  0.43832549     0.10600
H1352       H  0.34138876  0.62589249  0.42624397     0.11100
H1353       H  0.25532717  0.68702980  0.43477870     0.11200
H1354       H  0.23202281  0.71212991  0.44259839     0.11200
H1355       H  0.27593003  0.75561638  0.43370737     0.11300
H1356       H  0.29900185  0.73036670  0.42591591     0.10100
C1357       C  0.04926766  0.74676209  0.48032864    -0.03700
C1358       C  0.05863109  0.72906665  0.47748593    -0.09400
C1359       C  0.07803772  0.72857228  0.47238078    -0.17100
C1360       C  0.08841330  0.74572634  0.47000098     0.25000
C1361       C  0.07917989  0.76342063  0.47249907    -0.18800
C1362       C  0.05973325  0.76395794  0.47760924    -0.07700
C1363       C  0.10864975  0.74521916  0.46560494    -0.14100
C1364       C  0.12571737  0.74588538  0.46256639    -0.13900
C1365       C  0.14600262  0.74904647  0.45962709     0.24900
C1366       C  0.15325312  0.76781993  0.46071237    -0.19300
C1367       C  0.17277951  0.77141684  0.45797302    -0.07700
C1368       C  0.18554483  0.75626707  0.45403711    -0.03800
C1369       C  0.17819577  0.73733514  0.45308053    -0.09100
C1370       C  0.15850720  0.73375575  0.45586633    -0.16800
H1371       H  0.05101490  0.71554337  0.47937905     0.11400
H1372       H  0.08499447  0.71479742  0.47049785     0.10700
H1373       H  0.08707158  0.77681064  0.47070337     0.10600
H1374       H  0.05297070  0.77780049  0.47962852     0.11100
H1375       H  0.14376663  0.77975940  0.46366596     0.11200
H1376       H  0.17780911  0.78618486  0.45887602     0.11200
H1377       H  0.18759906  0.72535253  0.45011649     0.11300
H1378       H  0.15305617  0.71912236  0.45505336     0.10100
C1379       C  0.23651049  0.80482027  0.44961319    -0.03700
C1380       C  0.22206757  0.81886656  0.45073267    -0.09400
C1381       C  0.22675523  0.83827925  0.45282744    -0.17100
C1382       C  0.24594148  0.84415953  0.45384884     0.25000
C1383       C  0.26056826  0.83043791  0.45238432    -0.18800
C1384       C  0.25587897  0.81082564  0.45020400    -0.07700
C1385       C  0.25005224  0.86428299  0.45703029    -0.14100
C1386       C  0.25082142  0.88133670  0.46034753    -0.13900
C1387       C  0.24995350  0.90153906  0.46502843     0.24900
C1388       C  0.26604391  0.91092848  0.47275804    -0.19300
C1389       C  0.26500959  0.93032416  0.47796697    -0.07700
C1390       C  0.24778755  0.94062138  0.47568209    -0.03800
C1391       C  0.23166902  0.93111371  0.46783932    -0.09100
C1392       C  0.23278240  0.91168978  0.46249791    -0.16800
H1393       H  0.20700579  0.81489217  0.45016867     0.11400
H1394       H  0.21532419  0.84873192  0.45391307     0.10700
H1395       H  0.27551211  0.83484302  0.45317050     0.10600
H1396       H  0.26732729  0.80039162  0.44937485     0.11100
H1397       H  0.27935645  0.90322274  0.47491063     0.11200
H1398       H  0.27766107  0.93718185  0.48406979     0.11200
H1399       H  0.21825770  0.93866820  0.46583388     0.11300
H1400       H  0.22020243  0.90453539  0.45656808     0.10100
C1401       C  0.73920517  0.56470575  0.74218880    -0.03700
C1402       C  0.74409163  0.56667978  0.72258595    -0.09400
C1403       C  0.72996943  0.57056642  0.70871833    -0.17100
C1404       C  0.71073377  0.57255406  0.71416327     0.25000
C1405       C  0.70570386  0.57058388  0.73360204    -0.18800
C1406       C  0.71979668  0.56668677  0.74750566    -0.07700
C1407       C  0.69625834  0.57692876  0.69985172    -0.14100
C1408       C  0.68438076  0.58103705  0.68779305    -0.13900
C1409       C  0.67049684  0.58660044  0.67331653     0.24900
C1410       C  0.65414430  0.57522045  0.66983903    -0.19300
C1411       C  0.64063142  0.58081986  0.65594172    -0.07700
C1412       C  0.64327462  0.59791997  0.64530604    -0.03800
C1413       C  0.65982318  0.60916698  0.64881895    -0.09100
C1414       C  0.67329179  0.60355422  0.66271642    -0.16800
H1415       H  0.75884137  0.56526871  0.71792229     0.11400
H1416       H  0.73408075  0.57209573  0.69373901     0.10700
H1417       H  0.69088679  0.57213172  0.73803753     0.10600
H1418       H  0.71546571  0.56529691  0.76242383     0.11100
H1419       H  0.65176912  0.56208151  0.67795107     0.11200
H1420       H  0.62795868  0.57193795  0.65378369     0.11200
H1421       H  0.66254667  0.62218986  0.64065612     0.11300
H1422       H  0.68591568  0.61245319  0.66518253     0.10100
C1423       C  0.94023373  0.51668025  0.74832453    -0.03700
C1424       C  0.93123776  0.52154447  0.73077513    -0.09400
C1425       C  0.91241831  0.52839932  0.73049452    -0.17100
C1426       C  0.90228417  0.53048922  0.74771737     0.25000
C1427       C  0.91113394  0.52585571  0.76528067    -0.18800
C1428       C  0.93000489  0.51902124  0.76560756    -0.07700
C1429       C  0.88266177  0.53692196  0.74738542    -0.14100
C1430       C  0.86606011  0.54168880  0.74827460    -0.13900
C1431       C  0.84631412  0.54650220  0.75189311     0.24900
C1432       C  0.84037310  0.54873538  0.77095062    -0.19300
C1433       C  0.82115498  0.55223698  0.77508165    -0.07700
C1434       C  0.80739788  0.55354480  0.76019337    -0.03800
C1435       C  0.81352510  0.55176683  0.74096056    -0.09100
C1436       C  0.83291696  0.54820314  0.73684220    -0.16800
H1437       H  0.93872524  0.52003415  0.71720624     0.11400
H1438       H  0.90573433  0.53194022  0.71682823     0.10700
H1439       H  0.90339966  0.52740697  0.77871587     0.10600
H1440       H  0.93651875  0.51546204  0.77934056     0.11100
H1441       H  0.85058108  0.54745214  0.78270752     0.11200
H1442       H  0.81707643  0.55364235  0.79006411     0.11200
H1443       H  0.80331627  0.55267560  0.72918967     0.11300
H1444       H  0.83738257  0.54646555  0.72200250     0.10100
C1445       C  0.74820438  0.51192304  0.94318711    -0.03700
C1446       C  0.73066615  0.51562611  0.93374111    -0.09400
C1447       C  0.73039234  0.52205300  0.91465222    -0.17100
C1448       C  0.74760665  0.52485612  0.90469351     0.25000
C1449       C  0.76514041  0.52109050  0.91388284    -0.18800
C1450       C  0.76545897  0.51466993  0.93302045    -0.07700
C1451       C  0.74729889  0.53160524  0.88506334    -0.14100
C1452       C  0.74796755  0.53709464  0.86857814    -0.13900
C1453       C  0.75100333  0.54312416  0.84895794     0.24900
C1454       C  0.76964110  0.54765011  0.84303624    -0.19300
C1455       C  0.77329249  0.55214949  0.82381854    -0.07700
C1456       C  0.75833438  0.55219424  0.81008337    -0.03800
C1457       C  0.73946367  0.54827471  0.81623725    -0.09100
C1458       C  0.73583538  0.54368930  0.83560876    -0.16800
H1459       H  0.71710854  0.51365277  0.94112028     0.11400
H1460       H  0.71674894  0.52488343  0.90768284     0.10700
H1461       H  0.77856664  0.52317150  0.90627265     0.10600
H1462       H  0.77917638  0.51190835  0.93984688     0.11100
H1463       H  0.78147394  0.54730926  0.85322431     0.11200
H1464       H  0.78798008  0.55526351  0.81968596     0.11200
H1465       H  0.72766330  0.54817345  0.80602703     0.11300
H1466       H  0.72132116  0.54020438  0.84007308     0.10100
C1467       C  0.74857002  0.55029672  0.01472484    -0.03700
C1468       C  0.73158522  0.56097715  0.01656188    -0.09400
C1469       C  0.73239828  0.58073677  0.02068213    -0.17100
C1470       C  0.75016243  0.59012335  0.02303892     0.25000
C1471       C  0.76711610  0.57955544  0.02151466    -0.18800
C1472       C  0.76634450  0.55982380  0.01741199    -0.07700
C1473       C  0.75091102  0.61066080  0.02646199    -0.14100
C1474       C  0.75023571  0.62791575  0.02874078    -0.13900
C1475       C  0.74684743  0.64832676  0.03079399     0.24900
C1476       C  0.76179677  0.66137842  0.03495409    -0.19300
C1477       C  0.75793591  0.68112891  0.03696417    -0.07700
C1478       C  0.73905967  0.68801701  0.03482198    -0.03800
C1479       C  0.72427639  0.67470728  0.03049576    -0.09100
C1480       C  0.72814768  0.65512879  0.02853068    -0.16800
H1481       H  0.71768999  0.55413863  0.01456044     0.11400
H1482       H  0.71915582  0.58875019  0.02180238     0.10700
H1483       H  0.78095267  0.58660093  0.02327538     0.10600
H1484       H  0.77972394  0.55208977  0.01609508     0.11100
H1485       H  0.77637685  0.65630726  0.03669158     0.11200
H1486       H  0.76965995  0.69094356  0.04024215     0.11200
H1487       H  0.70956936  0.67935142  0.02868992     0.11300
H1488       H  0.71646076  0.64523984  0.02527165     0.10100
C1489       C  0.74128749  0.30499668  0.94463182    -0.03700
C1490       C  0.75888586  0.31068133  0.95295142    -0.09400
C1491       C  0.76271543  0.33023163  0.95654783    -0.17100
C1492       C  0.74910050  0.34420654  0.95161226     0.25000
C1493       C  0.73202182  0.33865970  0.94248110    -0.18800
C1494       C  0.72811782  0.31924025  0.93904837    -0.07700
C1495       C  0.75171992  0.36409133  0.95699085    -0.14100
C1496       C  0.75191255  0.38077773  0.96184729    -0.13900
C1497       C  0.75091145  0.40056342  0.96800476     0.24900
C1498       C  0.73308020  0.40966450  0.96960650    -0.19300
C1499       C  0.73206260  0.42879078  0.97593388    -0.07700
C1500       C  0.74891079  0.43904916  0.98073143    -0.03800
C1501       C  0.76675026  0.42975494  0.97897507    -0.09100
C1502       C  0.76772078  0.41067390  0.97268356    -0.16800
H1503       H  0.76923511  0.30000809  0.95746691     0.11400
H1504       H  0.77598703  0.33437528  0.96367155     0.10700
H1505       H  0.72140627  0.34931923  0.93856292     0.10600
H1506       H  0.71451583  0.31532813  0.93244575     0.11100
H1507       H  0.71995702  0.40195251  0.96602624     0.11200
H1508       H  0.71813217  0.43552158  0.97706516     0.11200
H1509       H  0.78002028  0.43720248  0.98252126     0.11300
H1510       H  0.78158842  0.40379434  0.97153232     0.10100
C1511       C  0.55438771  0.75033445  0.00914173    -0.03700
C1512       C  0.56552747  0.73354984  0.00992556    -0.09400
C1513       C  0.58520569  0.73466982  0.01399052    -0.17100
C1514       C  0.59406499  0.75254269  0.01736426     0.25000
C1515       C  0.58311266  0.76934514  0.01666282    -0.18800
C1516       C  0.56342017  0.76826773  0.01256691    -0.07700
C1517       C  0.61438639  0.75340978  0.02148557    -0.14100
C1518       C  0.63139304  0.75222268  0.02474233    -0.13900
C1519       C  0.65134454  0.74794279  0.02827675     0.24900
C1520       C  0.65693090  0.72868674  0.02936121    -0.19300
C1521       C  0.67616391  0.72400304  0.03230649    -0.07700
C1522       C  0.69027002  0.73852596  0.03427109    -0.03800
C1523       C  0.68454360  0.75792624  0.03340117    -0.09100
C1524       C  0.66517297  0.76259817  0.03036619    -0.16800
H1525       H  0.55907045  0.71955305  0.00730370     0.11400
H1526       H  0.59353823  0.72156050  0.01447387     0.10700
H1527       H  0.58978004  0.78326377  0.01924187     0.10600
H1528       H  0.55528570  0.78149109  0.01206578     0.11100
H1529       H  0.64638836  0.71721897  0.02780334     0.11200
H1530       H  0.67994639  0.70892076  0.03300464     0.11200
H1531       H  0.69502026  0.76944991  0.03483787     0.11300
H1532       H  0.66101986  0.77758076  0.02954406     0.10100
C1533       C  0.44153890  0.74706487  0.98187078    -0.03700
C1534       C  0.43192290  0.76466646  0.97923804    -0.09400
C1535       C  0.41239925  0.76498645  0.97449604    -0.17100
C1536       C  0.40212084  0.74775490  0.97228622     0.25000
C1537       C  0.41153145  0.73013466  0.97479685    -0.18800
C1538       C  0.43111968  0.72977135  0.97955037    -0.07700
C1539       C  0.38196536  0.74818115  0.96736552    -0.14100
C1540       C  0.36512388  0.74774788  0.96310981    -0.13900
C1541       C  0.34522193  0.74484804  0.95791808     0.24900
C1542       C  0.33908323  0.72636366  0.95280791    -0.19300
C1543       C  0.31980497  0.72278416  0.94863132    -0.07700
C1544       C  0.30613945  0.73763548  0.94952275    -0.03800
C1545       C  0.31245353  0.75639775  0.95406643    -0.09100
C1546       C  0.33193199  0.75996430  0.95832143    -0.16800
H1547       H  0.43947392  0.77826482  0.98086285     0.11400
H1548       H  0.40531993  0.77869962  0.97256191     0.10700
H1549       H  0.40372736  0.71667798  0.97308953     0.10600
H1550       H  0.43807128  0.71599754  0.98144306     0.11100
H1551       H  0.34918727  0.71457354  0.95234297     0.11200
H1552       H  0.31557682  0.70818661  0.94498919     0.11200
H1553       H  0.30230936  0.76810884  0.95490696     0.11300
H1554       H  0.33654760  0.77438122  0.96222507     0.10100
C1555       C  0.73909778  0.43598747  0.25840287    -0.03700
C1556       C  0.71953506  0.43380757  0.25359568    -0.09400
C1557       C  0.70596393  0.42932059  0.26779636    -0.17100
C1558       C  0.71167145  0.42696199  0.28702449     0.25000
C1559       C  0.73106072  0.42924965  0.29200554    -0.18800
C1560       C  0.74466968  0.43373423  0.27783314    -0.07700
C1561       C  0.69768077  0.42165765  0.30146091    -0.14100
C1562       C  0.68574036  0.41652244  0.31303256    -0.13900
C1563       C  0.67134594  0.40945346  0.32628057     0.24900
C1564       C  0.67494475  0.39301447  0.33737732    -0.19300
C1565       C  0.66077599  0.38559686  0.34963619    -0.07700
C1566       C  0.64277756  0.39454447  0.35103544    -0.03800
C1567       C  0.63932922  0.41119910  0.34001302    -0.09100
C1568       C  0.65350876  0.41855873  0.32767733    -0.16800
H1569       H  0.71469586  0.43541207  0.23883546     0.11400
H1570       H  0.69101347  0.42753458  0.26373803     0.10700
H1571       H  0.73569506  0.42741844  0.30681776     0.10600
H1572       H  0.75957143  0.43530557  0.28211291     0.11100
H1573       H  0.68868256  0.38584676  0.33647248     0.11200
H1574       H  0.66401645  0.37298361  0.35819996     0.11200
H1575       H  0.62556392  0.41831882  0.34066338     0.11300
H1576       H  0.65049490  0.43123633  0.31910400     0.10100
C1577       C  0.75637671  0.44921340  0.19006132    -0.03700
C1578       C  0.73734937  0.44716162  0.18336307    -0.09400
C1579       C  0.73301887  0.44988146  0.16374319    -0.17100
C1580       C  0.74764677  0.45469652  0.15068197     0.25000
C1581       C  0.76650046  0.45684376  0.15729392    -0.18800
C1582       C  0.77084201  0.45413953  0.17672273    -0.07700
C1583       C  0.74377841  0.45765374  0.13045555    -0.14100
C1584       C  0.74295998  0.46087469  0.11335784    -0.13900
C1585       C  0.74392609  0.46561447  0.09312272     0.24900
C1586       C  0.76168409  0.47013647  0.08473072    -0.19300
C1587       C  0.76270986  0.47557732  0.06532073    -0.07700
C1588       C  0.74593815  0.47665526  0.05402944    -0.03800
C1589       C  0.72818287  0.47176976  0.06251686    -0.09100
C1590       C  0.72720291  0.46628880  0.08191455    -0.16800
H1591       H  0.72588247  0.44340865  0.19321741     0.11400
H1592       H  0.71832838  0.44822517  0.15878395     0.10700
H1593       H  0.77793118  0.46062358  0.14737985     0.10600
H1594       H  0.78564995  0.45594459  0.18123644     0.11100
H1595       H  0.77473811  0.46967163  0.09326432     0.11200
H1596       H  0.77658482  0.47920758  0.05924887     0.11200
H1597       H  0.71499734  0.47232747  0.05421566     0.11300
H1598       H  0.71338372  0.46280140  0.08821344     0.10100
C1599       C  0.80672473  0.44700881  0.23911933    -0.03700
C1600       C  0.81302066  0.45164998  0.25785424    -0.09400
C1601       C  0.83257982  0.45510378  0.26150729    -0.17100
C1602       C  0.84597920  0.45372776  0.24652475     0.25000
C1603       C  0.83985185  0.44846939  0.22805494    -0.18800
C1604       C  0.82041655  0.44515640  0.22436052    -0.07700
C1605       C  0.86592119  0.45850737  0.24955081    -0.14100
C1606       C  0.88269048  0.46296732  0.25020179    -0.13900
C1607       C  0.90258039  0.46878528  0.24956639     0.24900
C1608       C  0.91113389  0.47331933  0.23187035    -0.19300
C1609       C  0.93029728  0.47948941  0.23119405    -0.07700
C1610       C  0.94114938  0.48128233  0.24825517    -0.03800
C1611       C  0.93247489  0.47647459  0.26595097    -0.09100
C1612       C  0.91332627  0.47026063  0.26658058    -0.16800
H1613       H  0.80280491  0.45323052  0.26947768     0.11400
H1614       H  0.83718483  0.45920325  0.27587358     0.10700
H1615       H  0.85007609  0.44732045  0.21636805     0.10600
H1616       H  0.81608515  0.44141898  0.20981541     0.11100
H1617       H  0.90294294  0.47222402  0.21859868     0.11200
H1618       H  0.93653297  0.48305671  0.21734899     0.11200
H1619       H  0.94044897  0.47759588  0.27933887     0.11300
H1620       H  0.90686681  0.46675670  0.28034743     0.10100
C1621       C  0.39552218  0.64198632  0.35340355    -0.03700
C1622       C  0.41322310  0.63830930  0.34435424    -0.09400
C1623       C  0.42085803  0.65130423  0.33086572    -0.17100
C1624       C  0.41094955  0.66817200  0.32621451     0.25000
C1625       C  0.39343520  0.67198956  0.33520117    -0.18800
C1626       C  0.38579701  0.65902843  0.34863327    -0.07700
C1627       C  0.41836656  0.68140303  0.31192571    -0.14100
C1628       C  0.42354615  0.69274379  0.29973295    -0.13900
C1629       C  0.42868169  0.70652359  0.28496626     0.24900
C1630       C  0.43067951  0.72605888  0.28957012    -0.19300
C1631       C  0.43490886  0.73954341  0.27515949    -0.07700
C1632       C  0.43720632  0.73372399  0.25583176    -0.03800
C1633       C  0.43528009  0.71401938  0.25137127    -0.09100
C1634       C  0.43104813  0.70054783  0.26583713    -0.16800
H1635       H  0.42101166  0.62521503  0.34737810     0.11400
H1636       H  0.43438796  0.64809865  0.32394140     0.10700
H1637       H  0.38560847  0.68498655  0.33176869     0.10600
H1638       H  0.37238377  0.66257281  0.35537087     0.11100
H1639       H  0.42880870  0.73090943  0.30428683     0.11200
H1640       H  0.43625269  0.75455807  0.27919159     0.11200
H1641       H  0.43692239  0.70899892  0.23669798     0.11300
H1642       H  0.42946085  0.68547806  0.26206462     0.10100
C1643       C  0.44966465  0.75126457  0.18725887    -0.03700
C1644       C  0.45511247  0.73269089  0.18139275    -0.09400
C1645       C  0.45965766  0.72909765  0.16198470    -0.17100
C1646       C  0.45862689  0.74399246  0.14831749     0.25000
C1647       C  0.45261313  0.76224792  0.15401290    -0.18800
C1648       C  0.44817730  0.76586232  0.17323245    -0.07700
C1649       C  0.46422910  0.74121155  0.12850815    -0.14100
C1650       C  0.46882095  0.74128191  0.11172388    -0.13900
C1651       C  0.47413155  0.74282075  0.09167698     0.24900
C1652       C  0.47440596  0.76083317  0.08250033    -0.19300
C1653       C  0.47943752  0.76233844  0.06299343    -0.07700
C1654       C  0.48422108  0.74579881  0.05240556    -0.03800
C1655       C  0.48396054  0.72779143  0.06182132    -0.09100
C1656       C  0.47897469  0.72633709  0.08127454    -0.16800
H1657       H  0.45646445  0.72118807  0.19184763     0.11400
H1658       H  0.46429524  0.71486765  0.15773043     0.10700
H1659       H  0.45168449  0.77386444  0.14361227     0.10600
H1660       H  0.44386880  0.78029236  0.17714589     0.11100
H1661       H  0.47068057  0.77371556  0.09041739     0.11200
H1662       H  0.47946611  0.77638251  0.05619594     0.11200
H1663       H  0.48759923  0.71474408  0.05415417     0.11300
H1664       H  0.47885071  0.71233341  0.08817913     0.10100
C1665       C  0.44914611  0.80133824  0.23644522    -0.03700
C1666       C  0.44895571  0.81517937  0.22160773    -0.09400
C1667       C  0.45308414  0.83445397  0.22552394    -0.17100
C1668       C  0.45748593  0.84029739  0.24430031     0.25000
C1669       C  0.45722176  0.82678854  0.25933636    -0.18800
C1670       C  0.45298697  0.80738177  0.25544763    -0.07700
C1671       C  0.46286549  0.86008830  0.24760733    -0.14100
C1672       C  0.46754889  0.87684535  0.24808608    -0.13900
C1673       C  0.47310174  0.89683503  0.24682196     0.24900
C1674       C  0.47815949  0.90710290  0.26343370    -0.19300
C1675       C  0.48339718  0.92654070  0.26211946    -0.07700
C1676       C  0.48370533  0.93599642  0.24413268    -0.03800
C1677       C  0.47873140  0.92550941  0.22748833    -0.09100
C1678       C  0.47344053  0.90606390  0.22885197    -0.16800
H1679       H  0.44590531  0.81109109  0.20683936     0.11400
H1680       H  0.45318484  0.84477488  0.21379342     0.10700
H1681       H  0.46060872  0.83117389  0.27395084     0.10600
H1682       H  0.45328360  0.79706663  0.26715947     0.11100
H1683       H  0.47799546  0.90011593  0.27740602     0.11200
H1684       H  0.48717709  0.93416679  0.27522425     0.11200
H1685       H  0.47875710  0.93235746  0.21345789     0.11300
H1686       H  0.46955414  0.89823283  0.21588686     0.10100
C1687       C  0.55334870  0.73628306  0.73649204    -0.03700
C1688       C  0.55590049  0.71686538  0.74176837    -0.09400
C1689       C  0.56006894  0.70294930  0.72783667    -0.17100
C1690       C  0.56168267  0.70816033  0.70841104     0.25000
C1691       C  0.55876442  0.72733699  0.70294377    -0.18800
C1692       C  0.55459350  0.74129544  0.71685082    -0.07700
C1693       C  0.56691312  0.69396236  0.69420587    -0.14100
C1694       C  0.57195188  0.68224575  0.68242004    -0.13900
C1695       C  0.57890098  0.66862036  0.66841448     0.24900
C1696       C  0.59429575  0.67369954  0.65649032    -0.19300
C1697       C  0.60162936  0.66037922  0.64339384    -0.07700
C1698       C  0.59375958  0.64173389  0.64203189    -0.03800
C1699       C  0.57796819  0.63684486  0.65370036    -0.09100
C1700       C  0.57063321  0.65020482  0.66687310    -0.16800
H1701       H  0.55499502  0.71243034  0.75670840     0.11400
H1702       H  0.56228941  0.68816176  0.73226323     0.10700
H1703       H  0.55997007  0.73156069  0.68795304     0.10600
H1704       H  0.55266541  0.75605453  0.71222888     0.11100
H1705       H  0.60073637  0.68793048  0.65740438     0.11200
H1706       H  0.61337296  0.66474764  0.63423642     0.11200
H1707       H  0.57165633  0.62255797  0.65300745     0.11300
H1708       H  0.55869444  0.64609459  0.67601273     0.10100
C1709       C  0.51103747  0.93932183  0.74505193    -0.03700
C1710       C  0.50849018  0.92848520  0.72806721    -0.09400
C1711       C  0.51374940  0.90910754  0.72741139    -0.17100
C1712       C  0.52177121  0.90030851  0.74365457     0.25000
C1713       C  0.52434313  0.91095750  0.76065026    -0.18800
C1714       C  0.51892691  0.93033142  0.76139223    -0.07700
C1715       C  0.52707162  0.88029093  0.74303130    -0.14100
C1716       C  0.53128849  0.86347675  0.74374150    -0.13900
C1717       C  0.53596788  0.84358822  0.74718047     0.24900
C1718       C  0.53938041  0.83761777  0.76609461    -0.19300
C1719       C  0.54307896  0.81833313  0.77008508    -0.07700
C1720       C  0.54341326  0.80453978  0.75519635    -0.03800
C1721       C  0.54037198  0.81068477  0.73608742    -0.09100
C1722       C  0.53661998  0.83013635  0.73211398    -0.16800
H1723       H  0.50226141  0.93494847  0.71530564     0.11400
H1724       H  0.51155022  0.90099597  0.71423628     0.10700
H1725       H  0.53049368  0.90426912  0.77334207     0.10600
H1726       H  0.52107937  0.93831074  0.77464614     0.11100
H1727       H  0.53893586  0.84786988  0.77786160     0.11200
H1728       H  0.54544921  0.81424003  0.78496516     0.11200
H1729       H  0.54051394  0.80045325  0.72431324     0.11300
H1730       H  0.53398799  0.83461692  0.71738419     0.10100
C1731       C  0.54634408  0.75504084  0.80500485    -0.03700
C1732       C  0.54873259  0.76967008  0.81887073    -0.09400
C1733       C  0.54518453  0.76602626  0.83829518    -0.17100
C1734       C  0.53920979  0.74772698  0.84424783     0.25000
C1735       C  0.53756931  0.73278408  0.83073072    -0.18800
C1736       C  0.54122520  0.73639209  0.81117195    -0.07700
C1737       C  0.53380999  0.74493853  0.86407250    -0.14100
C1738       C  0.52894406  0.74463819  0.88074209    -0.13900
C1739       C  0.52304298  0.74559887  0.90059444     0.24900
C1740       C  0.51691429  0.72893462  0.91013543    -0.19300
C1741       C  0.51138652  0.72983223  0.92945262    -0.07700
C1742       C  0.51183536  0.74745809  0.93952886    -0.03800
C1743       C  0.51780099  0.76419743  0.92976275    -0.09100
C1744       C  0.52340988  0.76324332  0.91041195    -0.16800
H1745       H  0.55287496  0.78413707  0.81466011     0.11400
H1746       H  0.54658035  0.77766801  0.84862161     0.10700
H1747       H  0.53296877  0.71853317  0.83521097     0.10600
H1748       H  0.53927002  0.72485375  0.80083491     0.11100
H1749       H  0.51649254  0.71522551  0.90267986     0.11200
H1750       H  0.50679262  0.71666973  0.93650651     0.11200
H1751       H  0.51837090  0.77793955  0.93712505     0.11300
H1752       H  0.52811332  0.77625022  0.90312790     0.10100
C1753       C  0.73610590  0.73852466  0.55621728    -0.03700
C1754       C  0.74125522  0.71903368  0.55814730    -0.09400
C1755       C  0.72731377  0.70493337  0.56197882    -0.17100
C1756       C  0.70800390  0.71003138  0.56388152     0.25000
C1757       C  0.70264849  0.72929481  0.56153926    -0.18800
C1758       C  0.71657243  0.74344466  0.55771564    -0.07700
C1759       C  0.69387571  0.69563600  0.56909501    -0.14100
C1760       C  0.68232123  0.68369140  0.57437422    -0.13900
C1761       C  0.66870742  0.66975472  0.58174628     0.24900
C1762       C  0.66134671  0.67192985  0.60031667    -0.19300
C1763       C  0.64826487  0.65847686  0.60769886    -0.07700
C1764       C  0.64214417  0.64249130  0.59664345    -0.03800
C1765       C  0.64982237  0.64041165  0.57795137    -0.09100
C1766       C  0.66294352  0.65393691  0.57059034    -0.16800
H1767       H  0.75610912  0.71467194  0.55703348     0.11400
H1768       H  0.73165353  0.69008489  0.56377370     0.10700
H1769       H  0.68774797  0.73343505  0.56298351     0.10600
H1770       H  0.71205049  0.75825983  0.55623586     0.11100
H1771       H  0.66573673  0.68406684  0.60915640     0.11200
H1772       H  0.64304428  0.66094357  0.62206043     0.11200
H1773       H  0.64604712  0.62819997  0.56901991     0.11300
H1774       H  0.66867238  0.65198186  0.55622582     0.10100
C1775       C  0.93806795  0.74548524  0.51310685    -0.03700
C1776       C  0.92805132  0.76253841  0.51705841    -0.09400
C1777       C  0.90882598  0.76180461  0.52286197    -0.17100
C1778       C  0.89931707  0.74405547  0.52477311     0.25000
C1779       C  0.90912239  0.72700557  0.52081853    -0.18800
C1780       C  0.92836074  0.72769620  0.51504283    -0.07700
C1781       C  0.87946022  0.74351877  0.53059486    -0.14100
C1782       C  0.86279587  0.74465026  0.53517421    -0.13900
C1783       C  0.84309023  0.74851608  0.54003206     0.24900
C1784       C  0.82932803  0.73369563  0.54090005    -0.19300
C1785       C  0.81002091  0.73801137  0.54454079    -0.07700
C1786       C  0.80429749  0.75722818  0.54724621    -0.03800
C1787       C  0.81838126  0.77189299  0.54677223    -0.09100
C1788       C  0.83756574  0.76755341  0.54319524    -0.16800
H1789       H  0.93507138  0.77644450  0.51572381     0.11400
H1790       H  0.90136049  0.77510557  0.52584719     0.10700
H1791       H  0.90191047  0.71318862  0.52218487     0.10600
H1792       H  0.93561499  0.71428497  0.51207640     0.11100
H1793       H  0.83344960  0.71888525  0.53845732     0.11200
H1794       H  0.79955678  0.72639396  0.54479917     0.11200
H1795       H  0.81457902  0.78683507  0.54888847     0.11300
H1796       H  0.84807278  0.77913727  0.54257555     0.10100
C1797       C  0.75508968  0.80704259  0.54820231    -0.03700
C1798       C  0.76957634  0.82110404  0.55058832    -0.09400
C1799       C  0.76600282  0.84039223  0.54641621    -0.17100
C1800       C  0.74792165  0.84601016  0.53978958     0.25000
C1801       C  0.73311009  0.83229890  0.53811198    -0.18800
C1802       C  0.73664093  0.81289013  0.54240366    -0.07700
C1803       C  0.74520169  0.86570353  0.53390332    -0.14100
C1804       C  0.74488358  0.88232727  0.52883443    -0.13900
C1805       C  0.74579907  0.90221497  0.52292282     0.24900
C1806       C  0.72903914  0.91186950  0.51765821    -0.19300
C1807       C  0.72989770  0.93124392  0.51222727    -0.07700
C1808       C  0.74757342  0.94128882  0.51193955    -0.03800
C1809       C  0.76438970  0.93141702  0.51709865    -0.09100
C1810       C  0.76348293  0.91200377  0.52256709    -0.16800
H1811       H  0.78388029  0.81714208  0.55523335     0.11400
H1812       H  0.77753787  0.85087044  0.54786685     0.10700
H1813       H  0.71902390  0.83650708  0.53302398     0.10600
H1814       H  0.72521181  0.80240065  0.54042298     0.11100
H1815       H  0.71528449  0.90445826  0.51784370     0.11200
H1816       H  0.71666038  0.93836848  0.50832099     0.11200
H1817       H  0.77819135  0.93871753  0.51707209     0.11300
H1818       H  0.77656426  0.90465145  0.52661372     0.10100
C1819       C  0.05574041  0.75657762  0.75512155    -0.03700
C1820       C  0.05484921  0.77629202  0.75038786    -0.09400
C1821       C  0.05871211  0.79042411  0.76431992    -0.17100
C1822       C  0.06358579  0.78511938  0.78318763     0.25000
C1823       C  0.06434056  0.76556405  0.78807906    -0.18800
C1824       C  0.06041764  0.75140773  0.77420040    -0.07700
C1825       C  0.06848868  0.79965024  0.79735050    -0.14100
C1826       C  0.07345565  0.81145274  0.80923067    -0.13900
C1827       C  0.08052176  0.82501326  0.82345763     0.24900
C1828       C  0.09671533  0.82046367  0.83453363    -0.19300
C1829       C  0.10404490  0.83366461  0.84795197    -0.07700
C1830       C  0.09524339  0.85163015  0.85059437    -0.03800
C1831       C  0.07880453  0.85603218  0.83964605    -0.09100
C1832       C  0.07154483  0.84282792  0.82610038    -0.16800
H1833       H  0.05124485  0.78083220  0.73589183     0.11400
H1834       H  0.05809758  0.80549124  0.76030984     0.10700
H1835       H  0.06816228  0.76123705  0.80259572     0.10600
H1836       H  0.06130993  0.73641232  0.77837898     0.11100
H1837       H  0.10377377  0.80673277  0.83270939     0.11200
H1838       H  0.11655564  0.82974914  0.85636034     0.11200
H1839       H  0.07185893  0.86983863  0.84123684     0.11300
H1840       H  0.05904328  0.84657657  0.81759006     0.10100
C1841       C  0.14382456  0.85057952  0.89512137    -0.03700
C1842       C  0.14087034  0.84070042  0.91262478    -0.09400
C1843       C  0.15402786  0.82689543  0.91905926    -0.17100
C1844       C  0.17037356  0.82269634  0.90814428     0.25000
C1845       C  0.17340592  0.83241887  0.89069389    -0.18800
C1846       C  0.16028303  0.84624078  0.88424341    -0.07700
C1847       C  0.18409282  0.80856272  0.91487505    -0.14100
C1848       C  0.19574962  0.79683769  0.92029477    -0.13900
C1849       C  0.20987889  0.78279734  0.92633612     0.24900
C1850       C  0.22824495  0.78875213  0.93230143    -0.19300
C1851       C  0.24217332  0.77512553  0.93736362    -0.07700
C1852       C  0.23796074  0.75524862  0.93660698    -0.03800
C1853       C  0.21932524  0.74943931  0.93097254    -0.09100
C1854       C  0.20546213  0.76308243  0.92583689    -0.16800
H1855       H  0.12823582  0.84340364  0.92123348     0.11400
H1856       H  0.15141964  0.81947009  0.93255177     0.10700
H1857       H  0.18599684  0.82939898  0.88210046     0.10600
H1858       H  0.16325380  0.85374013  0.87088773     0.11100
H1859       H  0.23188722  0.80394260  0.93283304     0.11200
H1860       H  0.25627689  0.78017642  0.94175135     0.11200
H1861       H  0.21551132  0.73431114  0.93019929     0.11300
H1862       H  0.19133841  0.75821988  0.92127263     0.10100
C1863       C  0.23774325  0.93100991  0.75105267    -0.03700
C1864       C  0.21820915  0.92880768  0.74613654    -0.09400
C1865       C  0.20446620  0.92501606  0.76038888    -0.17100
C1866       C  0.20999512  0.92339038  0.77975940     0.25000
C1867       C  0.22938499  0.92548676  0.78478214    -0.18800
C1868       C  0.24314536  0.92926655  0.77057964    -0.07700
C1869       C  0.19582492  0.91938440  0.79443865    -0.14100
C1870       C  0.18393566  0.91555472  0.80655485    -0.13900
C1871       C  0.16964141  0.90994515  0.82059244     0.24900
C1872       C  0.16750073  0.92026728  0.83781592    -0.19300
C1873       C  0.15401518  0.91424783  0.85160532    -0.07700
C1874       C  0.14258227  0.89774229  0.84837298    -0.03800
C1875       C  0.14457758  0.88775869  0.83085115    -0.09100
C1876       C  0.15799735  0.89379680  0.81711609    -0.16800
H1877       H  0.21351831  0.92998083  0.73128615     0.11400
H1878       H  0.18951592  0.92334209  0.75628878     0.10700
H1879       H  0.23388718  0.92419086  0.79969252     0.10600
H1880       H  0.25802462  0.93081545  0.77494463     0.11100
H1881       H  0.17641524  0.93280335  0.84069867     0.11200
H1882       H  0.15292297  0.92216895  0.86499190     0.11200
H1883       H  0.13571585  0.87527076  0.82768268     0.11300
H1884       H  0.15939254  0.88575208  0.80381740     0.10100
C1885       C  0.09277732  0.90378704  0.90198260    -0.03700
C1886       C  0.08100282  0.91769740  0.89304857    -0.09400
C1887       C  0.06902511  0.92972551  0.90395075    -0.17100
C1888       C  0.06836211  0.92807836  0.92409241     0.25000
C1889       C  0.07984183  0.91427305  0.93313603    -0.18800
C1890       C  0.09183496  0.90227481  0.92231107    -0.07700
C1891       C  0.05588961  0.94032096  0.93556067    -0.14100
C1892       C  0.04573385  0.95026924  0.94568121    -0.13900
C1893       C  0.03391524  0.96210336  0.95822960     0.24900
C1894       C  0.01385912  0.96031012  0.95804586    -0.19300
C1895       C  0.00255541  0.97166924  0.97026566    -0.07700
C1896       C  0.01094764  0.98484466  0.98349170    -0.03800
C1897       C  0.03121351  0.98699434  0.98283539    -0.09100
C1898       C  0.04246309  0.97562822  0.97058995    -0.16800
H1899       H  0.08105870  0.91922276  0.87750808     0.11400
H1900       H  0.06021353  0.94025672  0.89662782     0.10700
H1901       H  0.07944544  0.91265691  0.94867013     0.10600
H1902       H  0.09992394  0.89172159  0.93021009     0.11100
H1903       H  0.00690285  0.95013003  0.94841523     0.11200
H1904       H  0.98708809  0.96996748  0.96963960     0.11200
H1905       H  0.03866509  0.99768442  0.99137821     0.11300
H1906       H  0.05792402  0.97754860  0.97066325     0.10100
C1907       C  0.75788266  0.75578838  0.04925809    -0.03700
C1908       C  0.75295576  0.77538168  0.05076066    -0.09400
C1909       C  0.76676754  0.78922618  0.05589750    -0.17100
C1910       C  0.78573262  0.78377464  0.05963538     0.25000
C1911       C  0.79082030  0.76435585  0.05814262    -0.18800
C1912       C  0.77702794  0.75046285  0.05297920    -0.07700
C1913       C  0.79978643  0.79806053  0.06546132    -0.14100
C1914       C  0.81107743  0.81018510  0.07098444    -0.13900
C1915       C  0.82390008  0.82479242  0.07857670     0.24900
C1916       C  0.84166441  0.82854120  0.06985209    -0.19300
C1917       C  0.85411126  0.84254148  0.07757108    -0.07700
C1918       C  0.84897212  0.85299548  0.09415062    -0.03800
C1919       C  0.83103670  0.84913975  0.10269173    -0.09100
C1920       C  0.81863745  0.83518466  0.09495732    -0.16800
H1921       H  0.73840105  0.78006434  0.04801616     0.11400
H1922       H  0.76261287  0.80418828  0.05705867     0.10700
H1923       H  0.80543166  0.75992739  0.06107228     0.10600
H1924       H  0.78135715  0.73555126  0.05201641     0.11100
H1925       H  0.84596312  0.82055222  0.05719781     0.11200
H1926       H  0.86790935  0.84485444  0.07077053     0.11200
H1927       H  0.82641291  0.85692806  0.11516136     0.11300
H1928       H  0.80491414  0.83248790  0.10184051     0.10100
C1929       C  0.84728794  0.90222561  0.14057992    -0.03700
C1930       C  0.85106781  0.92012577  0.14946626    -0.09400
C1931       C  0.83816746  0.92782843  0.16284474    -0.17100
C1932       C  0.82129564  0.91778081  0.16753782     0.25000
C1933       C  0.81723225  0.90022710  0.15851676    -0.18800
C1934       C  0.83007365  0.89250929  0.14518528    -0.07700
C1935       C  0.80837625  0.92501670  0.18202032    -0.14100
C1936       C  0.79720025  0.92999834  0.19430645    -0.13900
C1937       C  0.78344509  0.93501865  0.20896304     0.24900
C1938       C  0.76415078  0.93774085  0.20400789    -0.19300
C1939       C  0.75063954  0.94199379  0.21824761    -0.07700
C1940       C  0.75622159  0.94359209  0.23772744    -0.03800
C1941       C  0.77570093  0.94097785  0.24254313    -0.09100
C1942       C  0.78918324  0.93668552  0.22826364    -0.16800
H1943       H  0.86424454  0.92796148  0.14659026     0.11400
H1944       H  0.84151974  0.94142685  0.16975998     0.10700
H1945       H  0.80419410  0.89231669  0.16194951     0.10600
H1946       H  0.82640134  0.87899295  0.13863587     0.11100
H1947       H  0.75950957  0.93643564  0.18913610     0.11200
H1948       H  0.73580656  0.94393656  0.21397328     0.11200
H1949       H  0.78052404  0.94205302  0.25736345     0.11300
H1950       H  0.80406022  0.93453246  0.23230397     0.10100
C1951       C  0.89075849  0.85328756  0.14503952    -0.03700
C1952       C  0.90755887  0.84232814  0.14295912    -0.09400
C1953       C  0.91278344  0.82882303  0.15700449    -0.17100
C1954       C  0.90133941  0.82605216  0.17335890     0.25000
C1955       C  0.88462183  0.83691225  0.17557868    -0.18800
C1956       C  0.87937122  0.85042942  0.16155215    -0.07700
C1957       C  0.90668317  0.81199288  0.18775631    -0.14100
C1958       C  0.91110063  0.80001738  0.19960806    -0.13900
C1959       C  0.91621136  0.78535218  0.21346874     0.24900
C1960       C  0.91668379  0.78957946  0.23320633    -0.19300
C1961       C  0.92129740  0.77522954  0.24661654    -0.07700
C1962       C  0.92545093  0.75636239  0.24048847    -0.03800
C1963       C  0.92506776  0.75231658  0.22060252    -0.09100
C1964       C  0.92050912  0.76670299  0.20722941    -0.16800
H1965       H  0.91649828  0.84392572  0.13031026     0.11400
H1966       H  0.92570982  0.82046454  0.15504854     0.10700
H1967       H  0.87564700  0.83495759  0.18817357     0.10600
H1968       H  0.86653089  0.85881579  0.16380688     0.11100
H1969       H  0.91338693  0.80394261  0.23824944     0.11200
H1970       H  0.92142181  0.77889637  0.26178901     0.11200
H1971       H  0.92825193  0.73801855  0.21533898     0.11300
H1972       H  0.92022982  0.76323691  0.19200215     0.10100
C1973       C  0.98487865  0.98451570  0.01025281    -0.03700
C1974       C  0.98636970  0.96420778  0.01150007    -0.09400
C1975       C  0.97396083  0.95337011  0.02323628    -0.17100
C1976       C  0.96005776  0.96241181  0.03451753     0.25000
C1977       C  0.95907795  0.98254830  0.03438358    -0.18800
C1978       C  0.97147796  0.99344163  0.02265828    -0.07700
C1979       C  0.94707764  0.95096150  0.04635262    -0.14100
C1980       C  0.93661146  0.94087104  0.05612163    -0.13900
C1981       C  0.92466167  0.92836616  0.06797557     0.24900
C1982       C  0.90459113  0.92901545  0.06669716    -0.19300
C1983       C  0.89317552  0.91701645  0.07833960    -0.07700
C1984       C  0.90150373  0.90410052  0.09164284    -0.03800
C1985       C  0.92178305  0.90343646  0.09255983    -0.09100
C1986       C  0.93314725  0.91543417  0.08088014    -0.16800
H1987       H  0.99717914  0.95640980  0.00366827     0.11400
H1988       H  0.97528711  0.93783398  0.02354622     0.10700
H1989       H  0.94865945  0.98986728  0.04327572     0.10600
H1990       H  0.97024548  0.00898111  0.02280469     0.11100
H1991       H  0.89772961  0.93884554  0.05673760     0.11200
H1992       H  0.87769504  0.91789460  0.07706149     0.11200
H1993       H  0.92922048  0.89379740  0.10212496     0.11300
H1994       H  0.94865174  0.91463485  0.08197257     0.10100
C1995       C  0.75095019  0.05936362  0.75677966    -0.03700
C1996       C  0.74567721  0.06606379  0.77516807    -0.09400
C1997       C  0.75971818  0.07045861  0.78898651    -0.17100
C1998       C  0.77918378  0.06811489  0.78466514     0.25000
C1999       C  0.78455750  0.06130095  0.76650176    -0.18800
C2000       C  0.77056193  0.05699599  0.75262763    -0.07700
C2001       C  0.79369736  0.07306508  0.79867362    -0.14100
C2002       C  0.80605890  0.07757147  0.81005998    -0.13900
C2003       C  0.82084893  0.08343470  0.82341541     0.24900
C2004       C  0.83224301  0.09964423  0.81942224    -0.19300
C2005       C  0.84623054  0.10573667  0.83262845    -0.07700
C2006       C  0.84905332  0.09561264  0.84994359    -0.03800
C2007       C  0.83777468  0.07915762  0.85371347    -0.09100
C2008       C  0.82370798  0.07314763  0.84053722    -0.16800
H2009       H  0.73072130  0.06811415  0.77882748     0.11400
H2010       H  0.75539688  0.07577751  0.80298932     0.10700
H2011       H  0.79958827  0.05942717  0.76301502     0.10600
H2012       H  0.77511361  0.05176707  0.73867835     0.11100
H2013       H  0.83021938  0.10765541  0.80616799     0.11200
H2014       H  0.85491343  0.11829422  0.82925115     0.11200
H2015       H  0.83952169  0.07122196  0.86704017     0.11300
H2016       H  0.81494840  0.06060033  0.84378477     0.10100
C2017       C  0.84953262  0.13901627  0.89927083    -0.03700
C2018       C  0.83166694  0.14184991  0.89019383    -0.09400
C2019       C  0.81859073  0.15517894  0.89750801    -0.17100
C2020       C  0.82315602  0.16595219  0.91398088     0.25000
C2021       C  0.84085529  0.16310123  0.92322518    -0.18800
C2022       C  0.85393403  0.14966418  0.91597319    -0.07700
C2023       C  0.80978355  0.18011697  0.92109107    -0.14100
C2024       C  0.79838494  0.19211927  0.92626758    -0.13900
C2025       C  0.78463047  0.20674753  0.93143305     0.24900
C2026       C  0.79055350  0.22595811  0.93347248    -0.19300
C2027       C  0.77708331  0.24036918  0.93715040    -0.07700
C2028       C  0.75738558  0.23582514  0.93879017    -0.03800
C2029       C  0.75164176  0.21638102  0.93726043    -0.09100
C2030       C  0.76515872  0.20198696  0.93358738    -0.16800
H2031       H  0.82774599  0.13369324  0.87745372     0.11400
H2032       H  0.80495815  0.15717501  0.89022045     0.10700
H2033       H  0.84462503  0.17138980  0.93593142     0.10600
H2034       H  0.86766992  0.14796254  0.92311645     0.11100
H2035       H  0.80556096  0.22986856  0.93186003     0.11200
H2036       H  0.78209583  0.25512536  0.93831178     0.11200
H2037       H  0.73665494  0.21229924  0.93851491     0.11300
H2038       H  0.76035763  0.18718337  0.93206654     0.10100
C2039       C  0.93256786  0.23946160  0.75775919    -0.03700
C2040       C  0.92995390  0.21987835  0.75310942    -0.09400
C2041       C  0.92505127  0.20649294  0.76740101    -0.17100
C2042       C  0.92273975  0.21244201  0.78653006     0.25000
C2043       C  0.92536944  0.23185009  0.79133116    -0.18800
C2044       C  0.93024857  0.24526494  0.77707900    -0.07700
C2045       C  0.91759581  0.19862723  0.80117602    -0.14100
C2046       C  0.91311691  0.18679246  0.81312196    -0.13900
C2047       C  0.90738942  0.17230647  0.82687207     0.24900
C2048       C  0.89128344  0.17521434  0.83849881    -0.19300
C2049       C  0.88517700  0.16080642  0.85121293    -0.07700
C2050       C  0.89511411  0.14328408  0.85247649    -0.03800
C2051       C  0.91149270  0.14060476  0.84100827    -0.09100
C2052       C  0.91755435  0.15502736  0.82824834    -0.16800
H2053       H  0.93157614  0.21488833  0.73842255     0.11400
H2054       H  0.92302339  0.19149871  0.76351789     0.10700
H2055       H  0.92361097  0.23663156  0.80608490     0.10600
H2056       H  0.93215185  0.26019169  0.78122687     0.11100
H2057       H  0.88334101  0.18854812  0.83761675     0.11200
H2058       H  0.87273290  0.16344267  0.86012717     0.11200
H2059       H  0.91931461  0.12719685  0.84154593     0.11300
H2060       H  0.93001082  0.15260010  0.81927205     0.10100
C2061       C  0.90275115  0.08874057  0.90049317    -0.03700
C2062       C  0.90389838  0.06849131  0.89858128    -0.09400
C2063       C  0.91693175  0.05780551  0.90960067    -0.17100
C2064       C  0.92920382  0.06693014  0.92278745     0.25000
C2065       C  0.92839457  0.08699199  0.92477530    -0.18800
C2066       C  0.91535747  0.09775813  0.91374369    -0.07700
C2067       C  0.94223513  0.05554304  0.93446177    -0.14100
C2068       C  0.95240187  0.04536760  0.94433421    -0.13900
C2069       C  0.96366320  0.03277756  0.95661673     0.24900
C2070       C  0.98372610  0.03421797  0.95719279    -0.19300
C2071       C  0.99439746  0.02244929  0.96965032    -0.07700
C2072       C  0.98528453  0.00934630  0.98241351    -0.03800
C2073       C  0.96508621  0.00721173  0.98058146    -0.09100
C2074       C  0.95447783  0.01894739  0.96808276    -0.16800
H2075       H  0.89502119  0.06051157  0.88863840     0.11400
H2076       H  0.91738197  0.04230707  0.90784277     0.10700
H2077       H  0.93778917  0.09433253  0.93490527     0.10600
H2078       H  0.91507888  0.11324660  0.91555880     0.11100
H2079       H  0.99115043  0.04455660  0.94812846     0.11200
H2080       H  0.00988771  0.02401147  0.96983157     0.11200
H2081       H  0.95719622  0.99640854  0.98854073     0.11300
H2082       H  0.93900751  0.01721566  0.96739302     0.10100
C2083       C  0.23893056  0.23524876  0.05170008    -0.03700
C2084       C  0.24380152  0.21573363  0.05418590    -0.09400
C2085       C  0.22996069  0.20217369  0.06009419    -0.17100
C2086       C  0.21099924  0.20782892  0.06358788     0.25000
C2087       C  0.20598799  0.22716194  0.06101122    -0.18800
C2088       C  0.21978727  0.24074101  0.05513824    -0.07700
C2089       C  0.19675646  0.19394362  0.07010803    -0.14100
C2090       C  0.18474439  0.18263661  0.07593024    -0.13900
C2091       C  0.17037175  0.16939046  0.08340149     0.24900
C2092       C  0.15352018  0.16549672  0.07294508    -0.19300
C2093       C  0.13946178  0.15299140  0.08041911    -0.07700
C2094       C  0.14202005  0.14411296  0.09851541    -0.03800
C2095       C  0.15913202  0.14795617  0.10877913    -0.09100
C2096       C  0.17310735  0.16051341  0.10132309    -0.16800
H2097       H  0.25834204  0.21092819  0.05169367     0.11400
H2098       H  0.23409008  0.18728352  0.06203231     0.10700
H2099       H  0.19140144  0.23178807  0.06364529     0.10600
H2100       H  0.21542563  0.25557113  0.05335013     0.11100
H2101       H  0.15115597  0.17226101  0.05906882     0.11200
H2102       H  0.12645160  0.15058756  0.07215766     0.11200
H2103       H  0.16196475  0.14106976  0.12247575     0.11300
H2104       H  0.18608878  0.16327655  0.10956071     0.10100
C2105       C  0.24076912  0.05937529  0.23574389    -0.03700
C2106       C  0.22304708  0.06698827  0.24168302    -0.09400
C2107       C  0.20878256  0.07143418  0.22817990    -0.17100
C2108       C  0.21190666  0.06830193  0.20851125     0.25000
C2109       C  0.22950208  0.06078332  0.20242063    -0.18800
C2110       C  0.24386759  0.05640963  0.21591949    -0.07700
C2111       C  0.19714337  0.07317194  0.19467100    -0.14100
C2112       C  0.18460635  0.07796165  0.18358281    -0.13900
C2113       C  0.16957803  0.08463481  0.17084091     0.24900
C2114       C  0.16558000  0.07500781  0.15351300    -0.19300
C2115       C  0.15125935  0.08183287  0.14105387    -0.07700
C2116       C  0.14082955  0.09846932  0.14571207    -0.03800
C2117       C  0.14482976  0.10793301  0.16320849    -0.09100
C2118       C  0.15905651  0.10104023  0.17567878    -0.16800
H2119       H  0.22018004  0.06957202  0.25679425     0.11400
H2120       H  0.19529417  0.07733395  0.23310101     0.10700
H2121       H  0.23213102  0.05831827  0.18723824     0.10600
H2122       H  0.25728879  0.05050959  0.21085136     0.11100
H2123       H  0.17364150  0.06233564  0.14954698     0.11200
H2124       H  0.14867568  0.07438682  0.12756945     0.11200
H2125       H  0.13688195  0.12061974  0.16732491     0.11300
H2126       H  0.16193511  0.10859521  0.18905746     0.10100
C2127       C  0.09585199  0.14692048  0.14650906    -0.03700
C2128       C  0.07842291  0.14432195  0.15650021    -0.09400
C2129       C  0.07227983  0.15797246  0.16998239    -0.17100
C2130       C  0.08343389  0.17442748  0.17374984     0.25000
C2131       C  0.10076472  0.17715053  0.16388766    -0.18800
C2132       C  0.10690542  0.16356119  0.15036464    -0.07700
C2133       C  0.07713185  0.18853146  0.18766908    -0.14100
C2134       C  0.07216333  0.20050517  0.19926647    -0.13900
C2135       C  0.06673808  0.21503157  0.21312411     0.24900
C2136       C  0.06722698  0.23455131  0.20803598    -0.19300
C2137       C  0.06270184  0.24870481  0.22163393    -0.07700
C2138       C  0.05765626  0.24357043  0.24062239    -0.03800
C2139       C  0.05691259  0.22387747  0.24550916    -0.09100
C2140       C  0.06141087  0.20974885  0.23186406    -0.16800
H2141       H  0.06965786  0.13158945  0.15417231     0.11400
H2142       H  0.05886076  0.15563769  0.17753251     0.10700
H2143       H  0.10951646  0.18984440  0.16658413     0.10600
H2144       H  0.12017583  0.16630892  0.14272977     0.11100
H2145       H  0.07131375  0.23886069  0.19359443     0.11200
H2146       H  0.06342848  0.26367977  0.21731306     0.11200
H2147       H  0.05302744  0.21935363  0.25993045     0.11300
H2148       H  0.06093702  0.19470462  0.23600555     0.10100
C2149       C  0.08833924  0.09378360  0.09474092    -0.03700
C2150       C  0.09732399  0.08046338  0.08236754    -0.09400
C2151       C  0.08651269  0.06800307  0.07052204    -0.17100
C2152       C  0.06638796  0.06852764  0.07067293     0.25000
C2153       C  0.05726329  0.08171936  0.08277523    -0.18800
C2154       C  0.06801389  0.09416568  0.09465226    -0.07700
C2155       C  0.05503336  0.05566174  0.05847616    -0.14100
C2156       C  0.04508063  0.04527684  0.04837877    -0.13900
C2157       C  0.03280262  0.03339486  0.03608248     0.24900
C2158       C  0.01948490  0.04200375  0.02369159    -0.19300
C2159       C  0.00787332  0.03074992  0.01146440    -0.07700
C2160       C  0.00966437  0.01042491  0.01075695    -0.03800
C2161       C  0.02233281  0.00194647  0.02429039    -0.09100
C2162       C  0.03390469  0.01325731  0.03655470    -0.16800
H2163       H  0.11284900  0.07966808  0.08193595     0.11400
H2164       H  0.09388972  0.05794008  0.06125298     0.10700
H2165       H  0.04172085  0.08239303  0.08307425     0.10600
H2166       H  0.06004441  0.10390354  0.10359316     0.11100
H2167       H  0.01798987  0.05752534  0.02350731     0.11200
H2168       H  0.99741079  0.03826692  0.00283867     0.11200
H2169       H  0.02365653  0.98642783  0.02494113     0.11300
H2170       H  0.04381636  0.00625480  0.04632290     0.10100
loop_ 
_geom_bond_atom_site_label_1 
_geom_bond_atom_site_label_2 
_geom_bond_distance 
_geom_bond_site_symmetry_2 
_ccdc_geom_bond_type 
C1            C2   1.550       .  S
C1            C7   1.542       .  S
C1            C5   1.543       .  S
C1         C2149   1.545       .  S
C2            H9   1.080       .  S
C2            C3   1.370       .  D
C3            C4   1.539       .  S
C3         C2127   1.496       .  S
C4            C8   1.537       .  S
C4            C6   1.542       .  S
C4           H10   1.106       .  S
C5           H11   1.085       .  S
C5            C6   1.372       .  D
C6         C2094   1.498       .  S
C7           H12   1.086       .  S
C7            C8   1.368       .  D
C8         C2116   1.489       .  S
C13          C14   1.541       .  S
C13          C19   1.549       .  S
C13          C17   1.547       .  S
C13        C2061   1.540       .  S
C14          H21   1.086       .  S
C14          C15   1.368       .  D
C15          C16   1.535       .  S
C15        C2050   1.485       .  S
C16          C20   1.532       .  S
C16          C18   1.535       .  S
C16          H22   1.109       .  S
C17          H23   1.086       .  S
C17          C18   1.371       .  D
C18        C2017   1.489       .  S
C19          H24   1.080       .  S
C19          C20   1.365       .  D
C20        C2006   1.483       .  S
C25          C26   1.541       .  S
C25          C31   1.539       .  S
C25          C29   1.549       .  S
C25        C1984   1.540       .  S
C26          H33   1.085       .  S
C26          C27   1.370       .  D
C27          C28   1.543       .  S
C27        C1929   1.497       .  S
C28          C32   1.542       .  S
C28          C30   1.538       .  S
C28          H34   1.106       .  S
C29          H35   1.080       .  S
C29          C30   1.369       .  D
C30        C1951   1.493       .  S
C31          H36   1.085       .  S
C31          C32   1.369       .  D
C32        C1918   1.495       .  S
C37          C38   1.543       .  S
C37          C43   1.545       .  S
C37          C41   1.552       .  S
C37        C1885   1.546       .  S
C38          H45   1.086       .  S
C38          C39   1.368       .  D
C39          C40   1.535       .  S
C39        C1830   1.488       .  S
C40          C44   1.539       .  S
C40          C42   1.536       .  S
C40          H46   1.108       .  S
C41          H47   1.080       .  S
C41          C42   1.369       .  D
C42        C1841   1.496       .  S
C43          H48   1.086       .  S
C43          C44   1.371       .  D
C44        C1874   1.491       .  S
C49        C1896   1.567   1_655  S
C49        C1973   1.565   1_556  S
C49        C2072   1.564   1_565  S
C49        C2160   1.567   1_666  S
C50          N51   1.363       .  A
C50          N55   1.364       .  A
C50        C1753   1.487       .  S
N51          C52   1.359       .  A
C52          N53   1.354       .  A
C52        C1786   1.484       .  S
N53          C54   1.355       .  A
C54          N55   1.360       .  A
C54        C1797   1.482       .  S
C56          N57   1.364       .  A
C56          N61   1.366       .  A
C56        C1687   1.488       .  S
N57          C58   1.359       .  A
C58          N59   1.353       .  A
C58        C1731   1.481       .  S
N59          C60   1.353       .  A
C60          N61   1.361       .  A
C60        C1720   1.485       .  S
C62          N63   1.364       .  A
C62          N67   1.368       .  A
C62        C1632   1.489       .  S
N63          C64   1.357       .  A
C64          N65   1.352       .  A
C64        C1665   1.481       .  S
N65          C66   1.354       .  A
C66          N67   1.363       .  A
C66        C1643   1.485       .  S
C68          N69   1.367       .  A
C68          N73   1.364       .  A
C68        C1555   1.489       .  S
N69          C70   1.362       .  A
C70          N71   1.354       .  A
C70        C1577   1.487       .  S
N71          C72   1.353       .  A
C72          N73   1.358       .  A
C72        C1599   1.480       .  S
O74         Ni82   1.903       .  S
O74          C84   1.278       .  A
O75         Ni82   1.904   1_554  S
O75          C85   1.279       .  A
O76         Ni82   1.931       .  S
O76          C86   1.285       .  A
O77         Ni82   1.930   1_554  S
O77          C87   1.285       .  A
O78         Ni83   1.910   1_554  S
O78          C87   1.279       .  A
O79         Ni83   1.909       .  S
O79          C86   1.280       .  A
O80         Ni83   1.935   1_554  S
O80          C85   1.286       .  A
O81         Ni83   1.933       .  S
O81          C84   1.285       .  A
Ni82        Ni83   2.385       .  S
C84        C1742   1.482       .  S
C85        C1654   1.485       .  S
C86        C1533   1.485       .  S
C87        C1511   1.485       .  S
O88         Ni96   1.908       .  S
O88          C98   1.279       .  A
O89         Ni96   1.911   1_554  S
O89          C99   1.280       .  A
O90         Ni96   1.934   1_554  S
O90         C100   1.286       .  A
O91         Ni96   1.931       .  S
O91         C101   1.285       .  A
O92         Ni97   1.908       .  S
O92         C101   1.279       .  A
O93         Ni97   1.910   1_554  S
O93         C100   1.280       .  A
O94         Ni97   1.928   1_554  S
O94          C99   1.284       .  A
O95         Ni97   1.927       .  S
O95          C98   1.284       .  A
Ni96        Ni97   2.385       .  S
C98        C1445   1.482       .  S
C99        C1588   1.484       .  S
C100       C1467   1.487       .  S
C101       C1500   1.484       .  S
C102        N103   1.364       .  A
C102        N107   1.366       .  A
C102       C1907   1.489       .  S
N103        C104   1.359       .  A
C104        N105   1.355       .  A
C104       C1522   1.486       .  S
N105        C106   1.356       .  A
C106        N107   1.362       .  A
C106       C1478   1.490       .  S
C108        N109   1.366       .  A
C108        N113   1.366       .  A
C108       C1401   1.490       .  S
N109        C110   1.361       .  A
C110        N111   1.352       .  A
C110       C1434   1.484       .  S
N111        C112   1.352       .  A
C112        N113   1.360       .  A
C112       C1456   1.483       .  S
C114        N115   1.366       .  A
C114        N119   1.365       .  A
C114       C1346   1.489       .  S
N115        C116   1.360       .  A
C116        N117   1.354       .  A
C116       C1379   1.485       .  S
N117        C118   1.353       .  A
C118        N119   1.360       .  A
C118       C1368   1.487       .  S
O120       Ni128   1.906       .  S
O120        C130   1.279       .  A
O121       Ni128   1.908   1_455  S
O121        C131   1.279       .  A
O122       Ni128   1.929   1_455  S
O122        C132   1.285       .  A
O123       Ni128   1.928       .  S
O123        C133   1.284       .  A
O124       Ni129   1.912       .  S
O124        C133   1.280       .  A
O125       Ni129   1.910   1_455  S
O125        C132   1.280       .  A
O126       Ni129   1.925   1_455  S
O126        C131   1.284       .  A
O127       Ni129   1.923       .  S
O127        C130   1.283       .  A
Ni128      Ni129   2.386       .  S
C130       C1291   1.478       .  S
C131       C1313   1.482       .  S
C132       C1357   1.485       .  S
C133       C1775   1.484       .  S
O134       Ni142   1.909   1_455  S
O134        C144   1.280       .  A
O135       Ni142   1.908       .  S
O135        C145   1.280       .  A
O136       Ni142   1.923   1_455  S
O136        C146   1.283       .  A
O137       Ni142   1.923       .  S
O137        C147   1.283       .  A
O138       Ni143   1.913       .  S
O138        C147   1.280       .  A
O139       Ni143   1.913   1_455  S
O139        C146   1.281       .  A
O140       Ni143   1.927       .  S
O140        C145   1.284       .  A
O141       Ni143   1.928   1_455  S
O141        C144   1.284       .  A
Ni142      Ni143   2.386       .  S
C144       C1225   1.484       .  S
C145       C1423   1.482       .  S
C146       C1269   1.483       .  S
C147       C1247   1.483       .  S
C148        N149   1.364       .  A
C148        N153   1.364       .  A
C148       C1819   1.489       .  S
N149        C150   1.360       .  A
C150        N151   1.355       .  A
C150       C1324   1.483       .  S
N151        C152   1.354       .  A
C152        N153   1.360       .  A
C152       C1280   1.480       .  S
C154        N155   1.367       .  A
C154        N159   1.365       .  A
C154       C1192   1.489       .  S
N155        C156   1.362       .  A
C156        N157   1.354       .  A
C156       C1203   1.485       .  S
N157        C158   1.353       .  A
C158        N159   1.359       .  A
C158       C1236   1.484       .  S
C160        N161   1.366       .  A
C160        N165   1.366       .  A
C160       C1126   1.492       .  S
N161        C162   1.362       .  A
C162        N163   1.355       .  A
C162       C1170   1.487       .  S
N163        C164   1.354       .  A
C164        N165   1.361       .  A
C164       C1148   1.487       .  S
O166       Ni174   1.910       .  S
O166        C176   1.279       .  A
O167       Ni174   1.908   1_545  S
O167        C177   1.279       .  A
O168       Ni174   1.932       .  S
O168        C178   1.285       .  A
O169       Ni174   1.932   1_545  S
O169        C179   1.285       .  A
O170       Ni175   1.910   1_545  S
O170        C179   1.279       .  A
O171       Ni175   1.907       .  S
O171        C178   1.279       .  A
O172       Ni175   1.930   1_545  S
O172        C177   1.285       .  A
O173       Ni175   1.929       .  S
O173        C176   1.285       .  A
Ni174      Ni175   2.385       .  S
C176       C1082   1.483       .  S
C177       C1104   1.482       .  S
C178       C1808   1.484       .  S
C179       C1137   1.486       .  S
O180       Ni188   1.911   1_545  S
O180        C190   1.280       .  A
O181       Ni188   1.911       .  S
O181        C191   1.280       .  A
O182       Ni188   1.926       .  S
O182        C192   1.284       .  A
O183       Ni188   1.929   1_545  S
O183        C193   1.285       .  A
O184       Ni189   1.905   1_545  S
O184        C193   1.279       .  A
O185       Ni189   1.904       .  S
O185        C192   1.279       .  A
O186       Ni189   1.927       .  S
O186        C191   1.284       .  A
O187       Ni189   1.926   1_545  S
O187        C190   1.284       .  A
Ni188      Ni189   2.386       .  S
C190       C1005   1.483       .  S
C191       C1709   1.481       .  S
C192       C1049   1.479       .  S
C193       C1027   1.482       .  S
C194        N195   1.363       .  A
C194        N199   1.362       .  A
C194       C1995   1.483       .  S
N195        C196   1.360       .  A
C196        N197   1.356       .  A
C196       C1093   1.485       .  S
N197        C198   1.355       .  A
C198        N199   1.358       .  A
C198       C1038   1.482       .  S
C200        N201   1.365       .  A
C200        N205   1.363       .  A
C200        C972   1.488       .  S
N201        C202   1.361       .  A
C202        N203   1.354       .  A
C202       C1016   1.481       .  S
N203        C204   1.354       .  A
C204        N205   1.359       .  A
C204        C994   1.481       .  S
O206       Ni214   1.916   1_554  S
O206        C216   1.281       .  A
O207       Ni214   1.915       .  S
O207        C217   1.281       .  A
O208       Ni214   1.927       .  S
O208        C218   1.284       .  A
O209       Ni214   1.924   1_554  S
O209        C219   1.284       .  A
O210       Ni215   1.918   1_554  S
O210        C219   1.281       .  A
O211       Ni215   1.918       .  S
O211        C218   1.282       .  A
O212       Ni215   1.926       .  S
O212        C217   1.284       .  A
O213       Ni215   1.926   1_554  S
O213        C216   1.284       .  A
Ni214      Ni215   2.385       .  S
C216        C895   1.485       .  S
C217       C1214   1.486       .  S
C218        C939   1.487       .  S
C219        C917   1.486       .  S
C220        N221   1.369       .  A
C220        N225   1.368       .  A
C220       C1852   1.494       .  S
N221        C222   1.362       .  A
C222        N223   1.351       .  A
C222       C1544   1.486       .  S
N223        C224   1.351       .  A
C224        N225   1.362       .  A
C224        C950   1.488       .  S
O226       Ni234   1.915       .  S
O226        C236   1.281       .  A
O227       Ni234   1.916   1_455  S
O227        C237   1.281       .  A
O228       Ni234   1.926       .  S
O228        C238   1.284       .  A
O229       Ni234   1.923   1_455  S
O229        C239   1.283       .  A
O230       Ni235   1.912   1_455  S
O230        C239   1.280       .  A
O231       Ni235   1.912       .  S
O231        C238   1.280       .  A
O232       Ni235   1.923   1_455  S
O232        C237   1.283       .  A
O233       Ni235   1.921       .  S
O233        C236   1.283       .  A
Ni234      Ni235   2.386       .  S
C236       C1610   1.482       .  S
C237        C840   1.484       .  S
C238        C873   1.484       .  S
C239        C851   1.481       .  S
C240        N241   1.364       .  A
C240        N245   1.366       .  A
C240       C1962   1.488       .  S
N241        C242   1.359       .  A
C242        N243   1.352       .  A
C242       C1302   1.480       .  S
N243        C244   1.352       .  A
C244        N245   1.361       .  A
C244        C884   1.484       .  S
C246        N247   1.366       .  A
C246        N251   1.366       .  A
C246        C807   1.492       .  S
N247        C248   1.361       .  A
C248        N249   1.354       .  A
C248        C906   1.485       .  S
N249        C250   1.354       .  A
C250        N251   1.361       .  A
C250        C829   1.486       .  S
O252       Ni260   1.910       .  S
O252        C262   1.280       .  A
O253       Ni260   1.912   1_554  S
O253        C263   1.280       .  A
O254       Ni260   1.921       .  S
O254        C264   1.283       .  A
O255       Ni260   1.920   1_554  S
O255        C265   1.283       .  A
O256       Ni261   1.907   1_554  S
O256        C265   1.279       .  A
O257       Ni261   1.908       .  S
O257        C264   1.279       .  A
O258       Ni261   1.933   1_554  S
O258        C263   1.285       .  A
O259       Ni261   1.933       .  S
O259        C262   1.285       .  A
Ni260      Ni261   2.386       .  S
C262        C785   1.485       .  S
C263        C763   1.488       .  S
C264        C983   1.478       .  S
C265        C741   1.477       .  S
C266        N267   1.367       .  A
C266        N271   1.365       .  A
C266       C2028   1.490       .  S
N267        C268   1.362       .  A
C268        N269   1.354       .  A
C268        C796   1.487       .  S
N269        C270   1.353       .  A
C270        N271   1.359       .  A
C270       C1489   1.479       .  S
O272       Ni280   1.911       .  S
O272        C282   1.280   1_565  A
O273       Ni280   1.912       .  S
O273        C283   1.280       .  A
O274       Ni280   1.929       .  S
O274        C284   1.284       .  A
O275       Ni280   1.931   1_545  S
O275        C285   1.285       .  A
O276       Ni281   1.911   1_545  S
O276        C285   1.280       .  A
O277       Ni281   1.909       .  S
O277        C284   1.280       .  A
O278       Ni281   1.923       .  S
O278        C283   1.283       .  A
O279       Ni281   1.922       .  S
O279        C282   1.283   1_565  A
Ni280      Ni281   2.386       .  S
C282        C697   1.481       .  S
C283        C719   1.481       .  S
C284       C1676   1.483       .  S
C285        C675   1.485       .  S
C286        N287   1.364       .  A
C286        N291   1.363       .  A
C286       C1940   1.487       .  S
N287        C288   1.360       .  A
C288        N289   1.356       .  A
C288       C1071   1.485       .  S
N289        C290   1.355       .  A
C290        N291   1.359       .  A
C290        C730   1.484       .  S
C292        N293   1.366       .  A
C292        N297   1.362       .  A
C292        C664   1.489       .  S
N293        C294   1.363       .  A
C294        N295   1.355       .  A
C294        C686   1.487       .  S
N295        C296   1.354       .  A
C296        N297   1.357       .  A
C296        C752   1.479       .  S
O298       Ni306   1.909       .  S
O298        C308   1.279       .  A
O299       Ni306   1.907   1_545  S
O299        C309   1.279       .  A
O300       Ni306   1.932       .  S
O300        C310   1.285       .  A
O301       Ni306   1.932   1_545  S
O301        C311   1.285       .  A
O302       Ni307   1.903   1_545  S
O302        C311   1.278       .  A
O303       Ni307   1.904       .  S
O303        C310   1.279       .  A
O304       Ni307   1.927   1_545  S
O304        C309   1.284       .  A
O305       Ni307   1.927       .  S
O305        C308   1.284       .  A
Ni306      Ni307   2.386       .  S
C308        C631   1.483       .  S
C309        C609   1.481       .  S
C310       C1390   1.482       .  S
C311        C587   1.481       .  S
C312        N313   1.366       .  A
C312        N317   1.363       .  A
C312       C1863   1.488       .  S
N313        C314   1.362       .  A
C314        N315   1.354       .  A
C314        C642   1.486       .  S
N315        C316   1.352       .  A
C316        N317   1.357       .  A
C316       C1060   1.476       .  S
O318       Ni326   1.911       .  S
O318        C328   1.280       .  A
O319       Ni326   1.914   1_455  S
O319        C329   1.281       .  A
O320       Ni326   1.924   1_455  S
O320        C330   1.283       .  A
O321       Ni326   1.925       .  S
O321        C331   1.284       .  A
O322       Ni327   1.910       .  S
O322        C331   1.280       .  A
O323       Ni327   1.910   1_455  S
O323        C330   1.280       .  A
O324       Ni327   1.922   1_455  S
O324        C329   1.283       .  A
O325       Ni327   1.924       .  S
O325        C328   1.283       .  A
Ni326      Ni327   2.386       .  S
C328        C565   1.482       .  S
C329        C543   1.482       .  S
C330        C521   1.481       .  S
C331       C1159   1.481       .  S
C332        N333   1.364       .  A
C332        N337   1.367       .  A
C332       C2039   1.486       .  S
N333        C334   1.358       .  A
C334        N335   1.351       .  A
C334       C1258   1.481       .  S
N335        C336   1.353       .  A
C336        N337   1.361       .  A
C336        C576   1.485       .  S
C338        N339   1.366       .  A
C338        N343   1.366       .  A
C338        C499   1.489       .  S
N339        C340   1.359       .  A
C340        N341   1.351       .  A
C340        C598   1.478       .  S
N341        C342   1.352       .  A
C342        N343   1.362       .  A
C342        C532   1.485       .  S
C344        N345   1.365       .  A
C344        N349   1.365       .  A
C344       C2138   1.489       .  S
N345        C346   1.361       .  A
C346        N347   1.353       .  A
C346        C554   1.484       .  S
N347        C348   1.353       .  A
C348        N349   1.360       .  A
C348        C862   1.479       .  S
C350        N351   1.366       .  A
C350        N355   1.362       .  A
C350       C2105   1.487       .  S
N351        C352   1.363       .  A
C352        N353   1.354       .  A
C352        C708   1.486       .  S
N353        C354   1.353       .  A
C354        N355   1.357       .  A
C354        C620   1.481       .  S
C356        N357   1.366       .  A
C356        N361   1.368       .  A
C356       C2083   1.494       .  S
N357        C358   1.361       .  A
C358        N359   1.354       .  A
C358        C928   1.488       .  S
N359        C360   1.354       .  A
C360        N361   1.363       .  A
C360        C774   1.488       .  S
C362        C363   1.539       .  S
C362        C368   1.546       .  S
C362        C366   1.543       .  S
C362        C488   1.540       .  S
C363        H370   1.085       .  S
C363        C364   1.371       .  D
C364        C365   1.543       .  S
C364        C961   1.500       .  S
C365        C369   1.540       .  S
C365        C367   1.540       .  S
C365        H371   1.106       .  S
C366        H372   1.086       .  S
C366        C367   1.370       .  D
C367        C510   1.493       .  S
C368        H373   1.081       .  S
C368        C369   1.367       .  D
C369       C1181   1.492       .  S
C374        C375   1.538       .  S
C374        C380   1.546       .  S
C374        C378   1.548       .  S
C374        C455   1.544       .  S
C375        H382   1.086       .  S
C375        C376   1.367       .  D
C376        C377   1.540       .  S
C376       C1566   1.489       .  S
C377        C381   1.545       .  S
C377        C379   1.543       .  S
C377        H383   1.107       .  S
C378        H384   1.080       .  S
C378        C379   1.368       .  D
C379        C653   1.499       .  S
C380        H385   1.085       .  S
C380        C381   1.374       .  D
C381       C1115   1.503       .  S
C386        C387   1.548       .  S
C386        C392   1.545       .  S
C386        C390   1.540       .  S
C386        C433   1.542       .  S
C387        H394   1.080       .  S
C387        C388   1.367       .  D
C388        C389   1.537       .  S
C388       C1412   1.492       .  S
C389        C393   1.543       .  S
C389        C391   1.538       .  S
C389        H395   1.105       .  S
C390        H396   1.086       .  S
C390        C391   1.366       .  D
C391       C1698   1.487       .  S
C392        H397   1.084       .  S
C392        C393   1.375       .  D
C393       C1764   1.504       .  S
C398        C399   1.542       .  S
C398        C404   1.550       .  S
C398        C402   1.539       .  S
C398        C411   1.544       .  S
C399        H406   1.086       .  S
C399        C400   1.369       .  D
C400        C401   1.540       .  S
C400        C818   1.494       .  S
C401        C405   1.543       .  S
C401        C403   1.543       .  S
C401        H407   1.106       .  S
C402        H408   1.086       .  S
C402        C403   1.368       .  D
C403       C1621   1.496       .  S
C404        H409   1.079       .  S
C404        C405   1.372       .  D
C405       C1335   1.502       .  S
C410        C422   1.566       .  S
C410        C444   1.565       .  S
C410        C466   1.564       .  S
C410        C477   1.564       .  S
C411        C412   1.415       .  A
C411        C416   1.413       .  A
C412        C413   1.405       .  A
C412        H425   1.077       .  S
C413        C414   1.401       .  A
C413        H426   1.084       .  S
C414        C415   1.401       .  A
C414        C417   1.457       .  S
C415        C416   1.405       .  A
C415        H427   1.083       .  S
C416        H428   1.083       .  S
C417        C418   1.216       .  T
C418        C419   1.457       .  S
C419        C420   1.399       .  A
C419        C424   1.401       .  A
C420        C421   1.404       .  A
C420        H429   1.083       .  S
C421        C422   1.418       .  A
C421        H430   1.079       .  S
C422        C423   1.417       .  A
C423        C424   1.405       .  A
C423        H431   1.083       .  S
C424        H432   1.083       .  S
C433        C434   1.415       .  A
C433        C438   1.412       .  A
C434        C435   1.403       .  A
C434        H447   1.076       .  S
C435        C436   1.399       .  A
C435        H448   1.084       .  S
C436        C437   1.401       .  A
C436        C439   1.454       .  S
C437        C438   1.405       .  A
C437        H449   1.083       .  S
C438        H450   1.083       .  S
C439        C440   1.214       .  T
C440        C441   1.454       .  S
C441        C442   1.400       .  A
C441        C446   1.399       .  A
C442        C443   1.404       .  A
C442        H451   1.083       .  S
C443        C444   1.417       .  A
C443        H452   1.083       .  S
C444        C445   1.418       .  A
C445        C446   1.402       .  A
C445        H453   1.079       .  S
C446        H454   1.084       .  S
C455        C456   1.415       .  A
C455        C460   1.413       .  A
C456        C457   1.402       .  A
C456        H469   1.076       .  S
C457        C458   1.399       .  A
C457        H470   1.084       .  S
C458        C459   1.402       .  A
C458        C461   1.455       .  S
C459        C460   1.406       .  A
C459        H471   1.083       .  S
C460        H472   1.083       .  S
C461        C462   1.215       .  T
C462        C463   1.455       .  S
C463        C464   1.400       .  A
C463        C468   1.400       .  A
C464        C465   1.404       .  A
C464        H473   1.083       .  S
C465        C466   1.416       .  A
C465        H474   1.083       .  S
C466        C467   1.418       .  A
C467        C468   1.403       .  A
C467        H475   1.079       .  S
C468        H476   1.083       .  S
C477        C478   1.417       .  A
C477        C482   1.418       .  A
C478        C479   1.403       .  A
C478        H491   1.083       .  S
C479        C480   1.399       .  A
C479        H492   1.083       .  S
C480        C481   1.399       .  A
C480        C483   1.453       .  S
C481        C482   1.403       .  A
C481        H493   1.084       .  S
C482        H494   1.079       .  S
C483        C484   1.214       .  T
C484        C485   1.453       .  S
C485        C486   1.400       .  A
C485        C490   1.401       .  A
C486        C487   1.403       .  A
C486        H495   1.084       .  S
C487        C488   1.415       .  A
C487        H496   1.077       .  S
C488        C489   1.412       .  A
C489        C490   1.404       .  A
C489        H497   1.083       .  S
C490        H498   1.083       .  S
C499        C500   1.408       .  A
C499        C504   1.409       .  A
C500        C501   1.399       .  A
C500        H513   1.083       .  S
C501        C502   1.399       .  A
C501        H514   1.083       .  S
C502        C503   1.402       .  A
C502        C505   1.447       .  S
C503        C504   1.403       .  A
C503        H515   1.083       .  S
C504        H516   1.083       .  S
C505        C506   1.210       .  T
C506        C507   1.447       .  S
C507        C508   1.401       .  A
C507        C512   1.400       .  A
C508        C509   1.402       .  A
C508        H517   1.083       .  S
C509        C510   1.408       .  A
C509        H518   1.082       .  S
C510        C511   1.408       .  A
C511        C512   1.400       .  A
C511        H519   1.082       .  S
C512        H520   1.084       .  S
C521        C522   1.408       .  A
C521        C526   1.407       .  A
C522        C523   1.397       .  A
C522        H535   1.083       .  S
C523        C524   1.398       .  A
C523        H536   1.084       .  S
C524        C525   1.401       .  A
C524        C527   1.439       .  S
C525        C526   1.400       .  A
C525        H537   1.084       .  S
C526        H538   1.083       .  S
C527        C528   1.206       .  T
C528        C529   1.439       .  S
C529        C530   1.395       .  A
C529        C534   1.402       .  A
C530        C531   1.393       .  A
C530        H539   1.084       .  S
C531        C532   1.410       .  A
C531        H540   1.083       .  S
C532        C533   1.407       .  A
C533        C534   1.403       .  A
C533        H541   1.083       .  S
C534        H542   1.083       .  S
C543        C544   1.409       .  A
C543        C548   1.407       .  A
C544        C545   1.399       .  A
C544        H557   1.083       .  S
C545        C546   1.399       .  A
C545        H558   1.083       .  S
C546        C547   1.400       .  A
C546        C549   1.440       .  S
C547        C548   1.398       .  A
C547        H559   1.084       .  S
C548        H560   1.083       .  S
C549        C550   1.206       .  T
C550        C551   1.440       .  S
C551        C552   1.396       .  A
C551        C556   1.402       .  A
C552        C553   1.394       .  A
C552        H561   1.084       .  S
C553        C554   1.409       .  A
C553        H562   1.083       .  S
C554        C555   1.407       .  A
C555        C556   1.403       .  A
C555        H563   1.083       .  S
C556        H564   1.083       .  S
C565        C566   1.406       .  A
C565        C570   1.409       .  A
C566        C567   1.399       .  A
C566        H579   1.083       .  S
C567        C568   1.401       .  A
C567        H580   1.084       .  S
C568        C569   1.398       .  A
C568        C571   1.440       .  S
C569        C570   1.398       .  A
C569        H581   1.083       .  S
C570        H582   1.083       .  S
C571        C572   1.206       .  T
C572        C573   1.440       .  S
C573        C574   1.403       .  A
C573        C578   1.395       .  A
C574        C575   1.405       .  A
C574        H583   1.083       .  S
C575        C576   1.408       .  A
C575        H584   1.083       .  S
C576        C577   1.410       .  A
C577        C578   1.391       .  A
C577        H585   1.083       .  S
C578        H586   1.084       .  S
C587        C588   1.409       .  A
C587        C592   1.406       .  A
C588        C589   1.396       .  A
C588        H601   1.083       .  S
C589        C590   1.397       .  A
C589        H602   1.084       .  S
C590        C591   1.403       .  A
C590        C593   1.440       .  S
C591        C592   1.402       .  A
C591        H603   1.083       .  S
C592        H604   1.083       .  S
C593        C594   1.206       .  T
C594        C595   1.439       .  S
C595        C596   1.396       .  A
C595        C600   1.404       .  A
C596        C597   1.392       .  A
C596        H605   1.084       .  S
C597        C598   1.407       .  A
C597        H606   1.083       .  S
C598        C599   1.406       .  A
C599        C600   1.404       .  A
C599        H607   1.083       .  S
C600        H608   1.083       .  S
C609        C610   1.409       .  A
C609        C614   1.406       .  A
C610        C611   1.397       .  A
C610        H623   1.083       .  S
C611        C612   1.397       .  A
C611        H624   1.084       .  S
C612        C613   1.401       .  A
C612        C615   1.438       .  S
C613        C614   1.399       .  A
C613        H625   1.084       .  S
C614        H626   1.083       .  S
C615        C616   1.205       .  T
C616        C617   1.438       .  S
C617        C618   1.396       .  A
C617        C622   1.402       .  A
C618        C619   1.393       .  A
C618        H627   1.084       .  S
C619        C620   1.407       .  A
C619        H628   1.083       .  S
C620        C621   1.408       .  A
C621        C622   1.402       .  A
C621        H629   1.083       .  S
C622        H630   1.083       .  S
C631        C632   1.410       .  A
C631        C636   1.406       .  A
C632        C633   1.399       .  A
C632        H645   1.083       .  S
C633        C634   1.398       .  A
C633        H646   1.083       .  S
C634        C635   1.401       .  A
C634        C637   1.441       .  S
C635        C636   1.400       .  A
C635        H647   1.084       .  S
C636        H648   1.083       .  S
C637        C638   1.207       .  T
C638        C639   1.441       .  S
C639        C640   1.396       .  A
C639        C644   1.403       .  A
C640        C641   1.393       .  A
C640        H649   1.084       .  S
C641        C642   1.410       .  A
C641        H650   1.083       .  S
C642        C643   1.408       .  A
C643        C644   1.404       .  A
C643        H651   1.083       .  S
C644        H652   1.083       .  S
C653        C654   1.411       .  A
C653        C658   1.406       .  A
C654        C655   1.403       .  A
C654        H667   1.082       .  S
C655        C656   1.401       .  A
C655        H668   1.083       .  S
C656        C657   1.399       .  A
C656        C659   1.448       .  S
C657        C658   1.400       .  A
C657        H669   1.084       .  S
C658        H670   1.075       .  S
C659        C660   1.211       .  T
C660        C661   1.447       .  S
C661        C662   1.402       .  A
C661        C666   1.400       .  A
C662        C663   1.402       .  A
C662        H671   1.083       .  S
C663        C664   1.408       .  A
C663        H672   1.083       .  S
C664        C665   1.410       .  A
C665        C666   1.400       .  A
C665        H673   1.083       .  S
C666        H674   1.083       .  S
C675        C676   1.410       .  A
C675        C680   1.406       .  A
C676        C677   1.399       .  A
C676        H689   1.083       .  S
C677        C678   1.399       .  A
C677        H690   1.084       .  S
C678        C679   1.402       .  A
C678        C681   1.444       .  S
C679        C680   1.401       .  A
C679        H691   1.083       .  S
C680        H692   1.083       .  S
C681        C682   1.209       .  T
C682        C683   1.444       .  S
C683        C684   1.397       .  A
C683        C688   1.403       .  A
C684        C685   1.396       .  A
C684        H693   1.084       .  S
C685        C686   1.410       .  A
C685        H694   1.083       .  S
C686        C687   1.407       .  A
C687        C688   1.404       .  A
C687        H695   1.083       .  S
C688        H696   1.083       .  S
C697        C698   1.409       .  A
C697        C702   1.406       .  A
C698        C699   1.399       .  A
C698        H711   1.083       .  S
C699        C700   1.399       .  A
C699        H712   1.083       .  S
C700        C701   1.400       .  A
C700        C703   1.440       .  S
C701        C702   1.398       .  A
C701        H713   1.084       .  S
C702        H714   1.083       .  S
C703        C704   1.206       .  T
C704        C705   1.440       .  S
C705        C706   1.396       .  A
C705        C710   1.402       .  A
C706        C707   1.393       .  A
C706        H715   1.084       .  S
C707        C708   1.410       .  A
C707        H716   1.083       .  S
C708        C709   1.408       .  A
C709        C710   1.404       .  A
C709        H717   1.083       .  S
C710        H718   1.083       .  S
C719        C720   1.406       .  A
C719        C724   1.409       .  A
C720        C721   1.398       .  A
C720        H733   1.083       .  S
C721        C722   1.400       .  A
C721        H734   1.084       .  S
C722        C723   1.399       .  A
C722        C725   1.440       .  S
C723        C724   1.399       .  A
C723        H735   1.083       .  S
C724        H736   1.083       .  S
C725        C726   1.206       .  T
C726        C727   1.440       .  S
C727        C728   1.401       .  A
C727        C732   1.398       .  A
C728        C729   1.402       .  A
C728        H737   1.083       .  S
C729        C730   1.408       .  A
C729        H738   1.083       .  S
C730        C731   1.408       .  A
C731        C732   1.395       .  A
C731        H739   1.083       .  S
C732        H740   1.084       .  S
C741        C742   1.409       .  A
C741        C746   1.406       .  A
C742        C743   1.396       .  A
C742        H755   1.083       .  S
C743        C744   1.397       .  A
C743        H756   1.084       .  S
C744        C745   1.400       .  A
C744        C747   1.435       .  S
C745        C746   1.397       .  A
C745        H757   1.084       .  S
C746        H758   1.083       .  S
C747        C748   1.203       .  T
C748        C749   1.435       .  S
C749        C750   1.401       .  A
C749        C754   1.396       .  A
C750        C751   1.401       .  A
C750        H759   1.083       .  S
C751        C752   1.408       .  A
C751        H760   1.083       .  S
C752        C753   1.407       .  A
C753        C754   1.393       .  A
C753        H761   1.083       .  S
C754        H762   1.084       .  S
C763        C764   1.410       .  A
C763        C768   1.407       .  A
C764        C765   1.400       .  A
C764        H777   1.083       .  S
C765        C766   1.399       .  A
C765        H778   1.083       .  S
C766        C767   1.403       .  A
C766        C769   1.447       .  S
C767        C768   1.403       .  A
C767        H779   1.083       .  S
C768        H780   1.083       .  S
C769        C770   1.210       .  T
C770        C771   1.446       .  S
C771        C772   1.397       .  A
C771        C776   1.405       .  A
C772        C773   1.395       .  A
C772        H781   1.084       .  S
C773        C774   1.409       .  A
C773        H782   1.083       .  S
C774        C775   1.408       .  A
C775        C776   1.407       .  A
C775        H783   1.083       .  S
C776        H784   1.083       .  S
C785        C786   1.409       .  A
C785        C790   1.407       .  A
C786        C787   1.398       .  A
C786        H799   1.083       .  S
C787        C788   1.398       .  A
C787        H800   1.084       .  S
C788        C789   1.402       .  A
C788        C791   1.444       .  S
C789        C790   1.402       .  A
C789        H801   1.083       .  S
C790        H802   1.083       .  S
C791        C792   1.208       .  T
C792        C793   1.443       .  S
C793        C794   1.396       .  A
C793        C798   1.404       .  A
C794        C795   1.394       .  A
C794        H803   1.084       .  S
C795        C796   1.410       .  A
C795        H804   1.083       .  S
C796        C797   1.408       .  A
C797        C798   1.405       .  A
C797        H805   1.083       .  S
C798        H806   1.083       .  S
C807        C808   1.409       .  A
C807        C812   1.409       .  A
C808        C809   1.402       .  A
C808        H821   1.083       .  S
C809        C810   1.401       .  A
C809        H822   1.083       .  S
C810        C811   1.401       .  A
C810        C813   1.449       .  S
C811        C812   1.402       .  A
C811        H823   1.083       .  S
C812        H824   1.083       .  S
C813        C814   1.211       .  T
C814        C815   1.449       .  S
C815        C816   1.400       .  A
C815        C820   1.402       .  A
C816        C817   1.400       .  A
C816        H825   1.083       .  S
C817        C818   1.408       .  A
C817        H826   1.082       .  S
C818        C819   1.408       .  A
C819        C820   1.404       .  A
C819        H827   1.083       .  S
C820        H828   1.083       .  S
C829        C830   1.409       .  A
C829        C834   1.407       .  A
C830        C831   1.395       .  A
C830        H843   1.083       .  S
C831        C832   1.397       .  A
C831        H844   1.084       .  S
C832        C833   1.403       .  A
C832        C835   1.443       .  S
C833        C834   1.404       .  A
C833        H845   1.083       .  S
C834        H846   1.083       .  S
C835        C836   1.208       .  T
C836        C837   1.443       .  S
C837        C838   1.399       .  A
C837        C842   1.401       .  A
C838        C839   1.400       .  A
C838        H847   1.083       .  S
C839        C840   1.409       .  A
C839        H848   1.083       .  S
C840        C841   1.407       .  A
C841        C842   1.400       .  A
C841        H849   1.083       .  S
C842        H850   1.084       .  S
C851        C852   1.408       .  A
C851        C856   1.406       .  A
C852        C853   1.398       .  A
C852        H865   1.083       .  S
C853        C854   1.398       .  A
C853        H866   1.084       .  S
C854        C855   1.401       .  A
C854        C857   1.439       .  S
C855        C856   1.399       .  A
C855        H867   1.084       .  S
C856        H868   1.083       .  S
C857        C858   1.206       .  T
C858        C859   1.439       .  S
C859        C860   1.397       .  A
C859        C864   1.402       .  A
C860        C861   1.394       .  A
C860        H869   1.084       .  S
C861        C862   1.408       .  A
C861        H870   1.083       .  S
C862        C863   1.406       .  A
C863        C864   1.402       .  A
C863        H871   1.083       .  S
C864        H872   1.083       .  S
C873        C874   1.409       .  A
C873        C878   1.407       .  A
C874        C875   1.399       .  A
C874        H887   1.083       .  S
C875        C876   1.398       .  A
C875        H888   1.083       .  S
C876        C877   1.401       .  A
C876        C879   1.442       .  S
C877        C878   1.400       .  A
C877        H889   1.084       .  S
C878        H890   1.083       .  S
C879        C880   1.207       .  T
C880        C881   1.441       .  S
C881        C882   1.396       .  A
C881        C886   1.403       .  A
C882        C883   1.393       .  A
C882        H891   1.084       .  S
C883        C884   1.409       .  A
C883        H892   1.083       .  S
C884        C885   1.407       .  A
C885        C886   1.405       .  A
C885        H893   1.083       .  S
C886        H894   1.083       .  S
C895        C896   1.407       .  A
C895        C900   1.409       .  A
C896        C897   1.401       .  A
C896        H909   1.083       .  S
C897        C898   1.402       .  A
C897        H910   1.084       .  S
C898        C899   1.399       .  A
C898        C901   1.444       .  S
C899        C900   1.399       .  A
C899        H911   1.083       .  S
C900        H912   1.083       .  S
C901        C902   1.208       .  T
C902        C903   1.443       .  S
C903        C904   1.403       .  A
C903        C908   1.397       .  A
C904        C905   1.405       .  A
C904        H913   1.083       .  S
C905        C906   1.408       .  A
C905        H914   1.083       .  S
C906        C907   1.409       .  A
C907        C908   1.394       .  A
C907        H915   1.083       .  S
C908        H916   1.084       .  S
C917        C918   1.409       .  A
C917        C922   1.407       .  A
C918        C919   1.401       .  A
C918        H931   1.083       .  S
C919        C920   1.400       .  A
C919        H932   1.083       .  S
C920        C921   1.401       .  A
C920        C923   1.445       .  S
C921        C922   1.400       .  A
C921        H933   1.084       .  S
C922        H934   1.083       .  S
C923        C924   1.209       .  T
C924        C925   1.444       .  S
C925        C926   1.397       .  A
C925        C930   1.403       .  A
C926        C927   1.395       .  A
C926        H935   1.084       .  S
C927        C928   1.410       .  A
C927        H936   1.083       .  S
C928        C929   1.408       .  A
C929        C930   1.405       .  A
C929        H937   1.083       .  S
C930        H938   1.083       .  S
C939        C940   1.409       .  A
C939        C944   1.408       .  A
C940        C941   1.400       .  A
C940        H953   1.083       .  S
C941        C942   1.399       .  A
C941        H954   1.083       .  S
C942        C943   1.402       .  A
C942        C945   1.446       .  S
C943        C944   1.402       .  A
C943        H955   1.084       .  S
C944        H956   1.083       .  S
C945        C946   1.209       .  T
C946        C947   1.445       .  S
C947        C948   1.396       .  A
C947        C952   1.405       .  A
C948        C949   1.393       .  A
C948        H957   1.084       .  S
C949        C950   1.411       .  A
C949        H958   1.083       .  S
C950        C951   1.408       .  A
C951        C952   1.407       .  A
C951        H959   1.083       .  S
C952        H960   1.083       .  S
C961        C962   1.409       .  A
C961        C966   1.411       .  A
C962        C963   1.399       .  A
C962        H975   1.077       .  S
C963        C964   1.398       .  A
C963        H976   1.084       .  S
C964        C965   1.399       .  A
C964        C967   1.445       .  S
C965        C966   1.401       .  A
C965        H977   1.084       .  S
C966        H978   1.081       .  S
C967        C968   1.209       .  T
C968        C969   1.445       .  S
C969        C970   1.401       .  A
C969        C974   1.400       .  A
C970        C971   1.401       .  A
C970        H979   1.083       .  S
C971        C972   1.408       .  A
C971        H980   1.083       .  S
C972        C973   1.409       .  A
C973        C974   1.400       .  A
C973        H981   1.083       .  S
C974        H982   1.084       .  S
C983        C984   1.409       .  A
C983        C988   1.405       .  A
C984        C985   1.398       .  A
C984        H997   1.083       .  S
C985        C986   1.398       .  A
C985        H998   1.084       .  S
C986        C987   1.400       .  A
C986        C989   1.437       .  S
C987        C988   1.397       .  A
C987        H999   1.084       .  S
C988       H1000   1.083       .  S
C989        C990   1.204       .  T
C990        C991   1.437       .  S
C991        C992   1.401       .  A
C991        C996   1.397       .  A
C992        C993   1.401       .  A
C992       H1001   1.083       .  S
C993        C994   1.407       .  A
C993       H1002   1.083       .  S
C994        C995   1.408       .  A
C995        C996   1.394       .  A
C995       H1003   1.083       .  S
C996       H1004   1.084       .  S
C1005      C1006   1.409       .  A
C1005      C1010   1.406       .  A
C1006      C1007   1.399       .  A
C1006      H1019   1.083       .  S
C1007      C1008   1.399       .  A
C1007      H1020   1.084       .  S
C1008      C1009   1.400       .  A
C1008      C1011   1.442       .  S
C1009      C1010   1.399       .  A
C1009      H1021   1.083       .  S
C1010      H1022   1.083       .  S
C1011      C1012   1.207       .  T
C1012      C1013   1.441       .  S
C1013      C1014   1.398       .  A
C1013      C1018   1.402       .  A
C1014      C1015   1.395       .  A
C1014      H1023   1.084       .  S
C1015      C1016   1.408       .  A
C1015      H1024   1.083       .  S
C1016      C1017   1.406       .  A
C1017      C1018   1.402       .  A
C1017      H1025   1.083       .  S
C1018      H1026   1.083       .  S
C1027      C1028   1.405       .  A
C1027      C1032   1.410       .  A
C1028      C1029   1.399       .  A
C1028      H1041   1.083       .  S
C1029      C1030   1.401       .  A
C1029      H1042   1.084       .  S
C1030      C1031   1.398       .  A
C1030      C1033   1.439       .  S
C1031      C1032   1.399       .  A
C1031      H1043   1.084       .  S
C1032      H1044   1.083       .  S
C1033      C1034   1.206       .  T
C1034      C1035   1.439       .  S
C1035      C1036   1.401       .  A
C1035      C1040   1.397       .  A
C1036      C1037   1.403       .  A
C1036      H1045   1.083       .  S
C1037      C1038   1.409       .  A
C1037      H1046   1.083       .  S
C1038      C1039   1.407       .  A
C1039      C1040   1.393       .  A
C1039      H1047   1.083       .  S
C1040      H1048   1.084       .  S
C1049      C1050   1.406       .  A
C1049      C1054   1.409       .  A
C1050      C1051   1.400       .  A
C1050      H1063   1.083       .  S
C1051      C1052   1.401       .  A
C1051      H1064   1.084       .  S
C1052      C1053   1.396       .  A
C1052      C1055   1.437       .  S
C1053      C1054   1.395       .  A
C1053      H1065   1.084       .  S
C1054      H1066   1.083       .  S
C1055      C1056   1.204       .  T
C1056      C1057   1.436       .  S
C1057      C1058   1.402       .  A
C1057      C1062   1.396       .  A
C1058      C1059   1.402       .  A
C1058      H1067   1.083       .  S
C1059      C1060   1.406       .  A
C1059      H1068   1.083       .  S
C1060      C1061   1.406       .  A
C1061      C1062   1.393       .  A
C1061      H1069   1.083       .  S
C1062      H1070   1.084       .  S
C1071      C1072   1.409       .  A
C1071      C1076   1.408       .  A
C1072      C1073   1.404       .  A
C1072      H1085   1.083       .  S
C1073      C1074   1.402       .  A
C1073      H1086   1.083       .  S
C1074      C1075   1.397       .  A
C1074      C1077   1.441       .  S
C1075      C1076   1.394       .  A
C1075      H1087   1.084       .  S
C1076      H1088   1.083       .  S
C1077      C1078   1.207       .  T
C1078      C1079   1.442       .  S
C1079      C1080   1.401       .  A
C1079      C1084   1.399       .  A
C1080      C1081   1.399       .  A
C1080      H1089   1.084       .  S
C1081      C1082   1.406       .  A
C1081      H1090   1.083       .  S
C1082      C1083   1.410       .  A
C1083      C1084   1.400       .  A
C1083      H1091   1.083       .  S
C1084      H1092   1.083       .  S
C1093      C1094   1.409       .  A
C1093      C1098   1.408       .  A
C1094      C1095   1.404       .  A
C1094      H1107   1.083       .  S
C1095      C1096   1.402       .  A
C1095      H1108   1.083       .  S
C1096      C1097   1.397       .  A
C1096      C1099   1.442       .  S
C1097      C1098   1.394       .  A
C1097      H1109   1.084       .  S
C1098      H1110   1.083       .  S
C1099      C1100   1.207       .  T
C1100      C1101   1.442       .  S
C1101      C1102   1.398       .  A
C1101      C1106   1.402       .  A
C1102      C1103   1.398       .  A
C1102      H1111   1.084       .  S
C1103      C1104   1.409       .  A
C1103      H1112   1.083       .  S
C1104      C1105   1.406       .  A
C1105      C1106   1.401       .  A
C1105      H1113   1.083       .  S
C1106      H1114   1.083       .  S
C1115      C1116   1.408       .  A
C1115      C1120   1.411       .  A
C1116      C1117   1.398       .  A
C1116      H1129   1.075       .  S
C1117      C1118   1.397       .  A
C1117      H1130   1.084       .  S
C1118      C1119   1.403       .  A
C1118      C1121   1.449       .  S
C1119      C1120   1.406       .  A
C1119      H1131   1.083       .  S
C1120      H1132   1.082       .  S
C1121      C1122   1.212       .  T
C1122      C1123   1.450       .  S
C1123      C1124   1.401       .  A
C1123      C1128   1.401       .  A
C1124      C1125   1.403       .  A
C1124      H1133   1.083       .  S
C1125      C1126   1.409       .  A
C1125      H1134   1.083       .  S
C1126      C1127   1.409       .  A
C1127      C1128   1.402       .  A
C1127      H1135   1.083       .  S
C1128      H1136   1.083       .  S
C1137      C1138   1.406       .  A
C1137      C1142   1.410       .  A
C1138      C1139   1.401       .  A
C1138      H1151   1.083       .  S
C1139      C1140   1.402       .  A
C1139      H1152   1.083       .  S
C1140      C1141   1.399       .  A
C1140      C1143   1.445       .  S
C1141      C1142   1.400       .  A
C1141      H1153   1.083       .  S
C1142      H1154   1.083       .  S
C1143      C1144   1.209       .  T
C1144      C1145   1.444       .  S
C1145      C1146   1.403       .  A
C1145      C1150   1.397       .  A
C1146      C1147   1.405       .  A
C1146      H1155   1.083       .  S
C1147      C1148   1.408       .  A
C1147      H1156   1.083       .  S
C1148      C1149   1.409       .  A
C1149      C1150   1.395       .  A
C1149      H1157   1.083       .  S
C1150      H1158   1.084       .  S
C1159      C1160   1.409       .  A
C1159      C1164   1.405       .  A
C1160      C1161   1.399       .  A
C1160      H1173   1.083       .  S
C1161      C1162   1.399       .  A
C1161      H1174   1.083       .  S
C1162      C1163   1.401       .  A
C1162      C1165   1.441       .  S
C1163      C1164   1.399       .  A
C1163      H1175   1.084       .  S
C1164      H1176   1.083       .  S
C1165      C1166   1.207       .  T
C1166      C1167   1.441       .  S
C1167      C1168   1.396       .  A
C1167      C1172   1.403       .  A
C1168      C1169   1.393       .  A
C1168      H1177   1.084       .  S
C1169      C1170   1.409       .  A
C1169      H1178   1.083       .  S
C1170      C1171   1.409       .  A
C1171      C1172   1.406       .  A
C1171      H1179   1.083       .  S
C1172      H1180   1.083       .  S
C1181      C1182   1.409       .  A
C1181      C1186   1.405       .  A
C1182      C1183   1.403       .  A
C1182      H1195   1.083       .  S
C1183      C1184   1.402       .  A
C1183      H1196   1.083       .  S
C1184      C1185   1.399       .  A
C1184      C1187   1.445       .  S
C1185      C1186   1.398       .  A
C1185      H1197   1.083       .  S
C1186      H1198   1.079       .  S
C1187      C1188   1.209       .  T
C1188      C1189   1.446       .  S
C1189      C1190   1.401       .  A
C1189      C1194   1.399       .  A
C1190      C1191   1.402       .  A
C1190      H1199   1.083       .  S
C1191      C1192   1.409       .  A
C1191      H1200   1.083       .  S
C1192      C1193   1.409       .  A
C1193      C1194   1.400       .  A
C1193      H1201   1.083       .  S
C1194      H1202   1.083       .  S
C1203      C1204   1.409       .  A
C1203      C1208   1.407       .  A
C1204      C1205   1.395       .  A
C1204      H1217   1.083       .  S
C1205      C1206   1.397       .  A
C1205      H1218   1.084       .  S
C1206      C1207   1.404       .  A
C1206      C1209   1.444       .  S
C1207      C1208   1.405       .  A
C1207      H1219   1.083       .  S
C1208      H1220   1.083       .  S
C1209      C1210   1.209       .  T
C1210      C1211   1.444       .  S
C1211      C1212   1.399       .  A
C1211      C1216   1.401       .  A
C1212      C1213   1.400       .  A
C1212      H1221   1.083       .  S
C1213      C1214   1.409       .  A
C1213      H1222   1.083       .  S
C1214      C1215   1.407       .  A
C1215      C1216   1.400       .  A
C1215      H1223   1.083       .  S
C1216      H1224   1.083       .  S
C1225      C1226   1.406       .  A
C1225      C1230   1.410       .  A
C1226      C1227   1.400       .  A
C1226      H1239   1.083       .  S
C1227      C1228   1.402       .  A
C1227      H1240   1.084       .  S
C1228      C1229   1.398       .  A
C1228      C1231   1.441       .  S
C1229      C1230   1.398       .  A
C1229      H1241   1.083       .  S
C1230      H1242   1.083       .  S
C1231      C1232   1.207       .  T
C1232      C1233   1.441       .  S
C1233      C1234   1.403       .  A
C1233      C1238   1.396       .  A
C1234      C1235   1.404       .  A
C1234      H1243   1.083       .  S
C1235      C1236   1.408       .  A
C1235      H1244   1.083       .  S
C1236      C1237   1.408       .  A
C1237      C1238   1.393       .  A
C1237      H1245   1.083       .  S
C1238      H1246   1.084       .  S
C1247      C1248   1.409       .  A
C1247      C1252   1.407       .  A
C1248      C1249   1.399       .  A
C1248      H1261   1.083       .  S
C1249      C1250   1.398       .  A
C1249      H1262   1.083       .  S
C1250      C1251   1.401       .  A
C1250      C1253   1.440       .  S
C1251      C1252   1.399       .  A
C1251      H1263   1.084       .  S
C1252      H1264   1.083       .  S
C1253      C1254   1.206       .  T
C1254      C1255   1.439       .  S
C1255      C1256   1.396       .  A
C1255      C1260   1.402       .  A
C1256      C1257   1.393       .  A
C1256      H1265   1.084       .  S
C1257      C1258   1.408       .  A
C1257      H1266   1.083       .  S
C1258      C1259   1.407       .  A
C1259      C1260   1.403       .  A
C1259      H1267   1.083       .  S
C1260      H1268   1.083       .  S
C1269      C1270   1.407       .  A
C1269      C1274   1.409       .  A
C1270      C1271   1.399       .  A
C1270      H1283   1.083       .  S
C1271      C1272   1.401       .  A
C1271      H1284   1.084       .  S
C1272      C1273   1.399       .  A
C1272      C1275   1.441       .  S
C1273      C1274   1.399       .  A
C1273      H1285   1.083       .  S
C1274      H1286   1.083       .  S
C1275      C1276   1.207       .  T
C1276      C1277   1.441       .  S
C1277      C1278   1.402       .  A
C1277      C1282   1.398       .  A
C1278      C1279   1.403       .  A
C1278      H1287   1.083       .  S
C1279      C1280   1.406       .  A
C1279      H1288   1.083       .  S
C1280      C1281   1.407       .  A
C1281      C1282   1.395       .  A
C1281      H1289   1.083       .  S
C1282      H1290   1.084       .  S
C1291      C1292   1.406       .  A
C1291      C1296   1.408       .  A
C1292      C1293   1.398       .  A
C1292      H1305   1.083       .  S
C1293      C1294   1.400       .  A
C1293      H1306   1.084       .  S
C1294      C1295   1.397       .  A
C1294      C1297   1.435       .  S
C1295      C1296   1.396       .  A
C1295      H1307   1.084       .  S
C1296      H1308   1.083       .  S
C1297      C1298   1.203       .  T
C1298      C1299   1.435       .  S
C1299      C1300   1.401       .  A
C1299      C1304   1.396       .  A
C1300      C1301   1.401       .  A
C1300      H1309   1.083       .  S
C1301      C1302   1.407       .  A
C1301      H1310   1.083       .  S
C1302      C1303   1.409       .  A
C1303      C1304   1.392       .  A
C1303      H1311   1.083       .  S
C1304      H1312   1.084       .  S
C1313      C1314   1.406       .  A
C1313      C1318   1.409       .  A
C1314      C1315   1.398       .  A
C1314      H1327   1.083       .  S
C1315      C1316   1.400       .  A
C1315      H1328   1.084       .  S
C1316      C1317   1.399       .  A
C1316      C1319   1.440       .  S
C1317      C1318   1.399       .  A
C1317      H1329   1.083       .  S
C1318      H1330   1.083       .  S
C1319      C1320   1.206       .  T
C1320      C1321   1.440       .  S
C1321      C1322   1.402       .  A
C1321      C1326   1.397       .  A
C1322      C1323   1.403       .  A
C1322      H1331   1.083       .  S
C1323      C1324   1.407       .  A
C1323      H1332   1.083       .  S
C1324      C1325   1.408       .  A
C1325      C1326   1.395       .  A
C1325      H1333   1.083       .  S
C1326      H1334   1.084       .  S
C1335      C1336   1.408       .  A
C1335      C1340   1.412       .  A
C1336      C1337   1.398       .  A
C1336      H1349   1.075       .  S
C1337      C1338   1.397       .  A
C1337      H1350   1.084       .  S
C1338      C1339   1.400       .  A
C1338      C1341   1.445       .  S
C1339      C1340   1.403       .  A
C1339      H1351   1.083       .  S
C1340      H1352   1.081       .  S
C1341      C1342   1.209       .  T
C1342      C1343   1.445       .  S
C1343      C1344   1.400       .  A
C1343      C1348   1.400       .  A
C1344      C1345   1.401       .  A
C1344      H1353   1.083       .  S
C1345      C1346   1.409       .  A
C1345      H1354   1.083       .  S
C1346      C1347   1.409       .  A
C1347      C1348   1.400       .  A
C1347      H1355   1.083       .  S
C1348      H1356   1.084       .  S
C1357      C1358   1.409       .  A
C1357      C1362   1.407       .  A
C1358      C1359   1.398       .  A
C1358      H1371   1.083       .  S
C1359      C1360   1.398       .  A
C1359      H1372   1.083       .  S
C1360      C1361   1.402       .  A
C1360      C1363   1.443       .  S
C1361      C1362   1.401       .  A
C1361      H1373   1.083       .  S
C1362      H1374   1.083       .  S
C1363      C1364   1.208       .  T
C1364      C1365   1.442       .  S
C1365      C1366   1.396       .  A
C1365      C1370   1.403       .  A
C1366      C1367   1.394       .  A
C1366      H1375   1.084       .  S
C1367      C1368   1.410       .  A
C1367      H1376   1.083       .  S
C1368      C1369   1.408       .  A
C1369      C1370   1.405       .  A
C1369      H1377   1.083       .  S
C1370      H1378   1.083       .  S
C1379      C1380   1.408       .  A
C1379      C1384   1.409       .  A
C1380      C1381   1.392       .  A
C1380      H1393   1.083       .  S
C1381      C1382   1.395       .  A
C1381      H1394   1.084       .  S
C1382      C1383   1.404       .  A
C1382      C1385   1.441       .  S
C1383      C1384   1.406       .  A
C1383      H1395   1.083       .  S
C1384      H1396   1.083       .  S
C1385      C1386   1.207       .  T
C1386      C1387   1.442       .  S
C1387      C1388   1.397       .  A
C1387      C1392   1.403       .  A
C1388      C1389   1.397       .  A
C1388      H1397   1.084       .  S
C1389      C1390   1.409       .  A
C1389      H1398   1.083       .  S
C1390      C1391   1.406       .  A
C1391      C1392   1.402       .  A
C1391      H1399   1.083       .  S
C1392      H1400   1.083       .  S
C1401      C1402   1.409       .  A
C1401      C1406   1.409       .  A
C1402      C1403   1.401       .  A
C1402      H1415   1.083       .  S
C1403      C1404   1.400       .  A
C1403      H1416   1.083       .  S
C1404      C1405   1.400       .  A
C1404      C1407   1.446       .  S
C1405      C1406   1.401       .  A
C1405      H1417   1.083       .  S
C1406      H1418   1.083       .  S
C1407      C1408   1.210       .  T
C1408      C1409   1.446       .  S
C1409      C1410   1.401       .  A
C1409      C1414   1.400       .  A
C1410      C1411   1.402       .  A
C1410      H1419   1.083       .  S
C1411      C1412   1.409       .  A
C1411      H1420   1.082       .  S
C1412      C1413   1.407       .  A
C1413      C1414   1.400       .  A
C1413      H1421   1.082       .  S
C1414      H1422   1.083       .  S
C1423      C1424   1.409       .  A
C1423      C1428   1.406       .  A
C1424      C1425   1.397       .  A
C1424      H1437   1.083       .  S
C1425      C1426   1.397       .  A
C1425      H1438   1.084       .  S
C1426      C1427   1.402       .  A
C1426      C1429   1.440       .  S
C1427      C1428   1.400       .  A
C1427      H1439   1.084       .  S
C1428      H1440   1.083       .  S
C1429      C1430   1.206       .  T
C1430      C1431   1.440       .  S
C1431      C1432   1.395       .  A
C1431      C1436   1.403       .  A
C1432      C1433   1.392       .  A
C1432      H1441   1.084       .  S
C1433      C1434   1.409       .  A
C1433      H1442   1.083       .  S
C1434      C1435   1.408       .  A
C1435      C1436   1.405       .  A
C1435      H1443   1.083       .  S
C1436      H1444   1.083       .  S
C1445      C1446   1.409       .  A
C1445      C1450   1.406       .  A
C1446      C1447   1.397       .  A
C1446      H1459   1.083       .  S
C1447      C1448   1.397       .  A
C1447      H1460   1.084       .  S
C1448      C1449   1.401       .  A
C1448      C1451   1.440       .  S
C1449      C1450   1.400       .  A
C1449      H1461   1.084       .  S
C1450      H1462   1.083       .  S
C1451      C1452   1.206       .  T
C1452      C1453   1.439       .  S
C1453      C1454   1.396       .  A
C1453      C1458   1.403       .  A
C1454      C1455   1.393       .  A
C1454      H1463   1.084       .  S
C1455      C1456   1.409       .  A
C1455      H1464   1.083       .  S
C1456      C1457   1.407       .  A
C1457      C1458   1.404       .  A
C1457      H1465   1.083       .  S
C1458      H1466   1.083       .  S
C1467      C1468   1.407       .  A
C1467      C1472   1.410       .  A
C1468      C1469   1.402       .  A
C1468      H1481   1.083       .  S
C1469      C1470   1.402       .  A
C1469      H1482   1.083       .  S
C1470      C1471   1.399       .  A
C1470      C1473   1.446       .  S
C1471      C1472   1.400       .  A
C1471      H1483   1.083       .  S
C1472      H1484   1.083       .  S
C1473      C1474   1.210       .  T
C1474      C1475   1.446       .  S
C1475      C1476   1.404       .  A
C1475      C1480   1.397       .  A
C1476      C1477   1.406       .  A
C1476      H1485   1.083       .  S
C1477      C1478   1.409       .  A
C1477      H1486   1.083       .  S
C1478      C1479   1.409       .  A
C1479      C1480   1.395       .  A
C1479      H1487   1.083       .  S
C1480      H1488   1.084       .  S
C1489      C1490   1.406       .  A
C1489      C1494   1.407       .  A
C1490      C1491   1.404       .  A
C1490      H1503   1.083       .  S
C1491      C1492   1.403       .  A
C1491      H1504   1.083       .  S
C1492      C1493   1.397       .  A
C1492      C1495   1.440       .  S
C1493      C1494   1.394       .  A
C1493      H1505   1.084       .  S
C1494      H1506   1.083       .  S
C1495      C1496   1.207       .  T
C1496      C1497   1.441       .  S
C1497      C1498   1.402       .  A
C1497      C1502   1.397       .  A
C1498      C1499   1.401       .  A
C1498      H1507   1.083       .  S
C1499      C1500   1.407       .  A
C1499      H1508   1.083       .  S
C1500      C1501   1.410       .  A
C1501      C1502   1.397       .  A
C1501      H1509   1.083       .  S
C1502      H1510   1.084       .  S
C1511      C1512   1.406       .  A
C1511      C1516   1.410       .  A
C1512      C1513   1.399       .  A
C1512      H1525   1.083       .  S
C1513      C1514   1.401       .  A
C1513      H1526   1.084       .  S
C1514      C1515   1.399       .  A
C1514      C1517   1.443       .  S
C1515      C1516   1.400       .  A
C1515      H1527   1.083       .  S
C1516      H1528   1.083       .  S
C1517      C1518   1.208       .  T
C1518      C1519   1.443       .  S
C1519      C1520   1.397       .  A
C1519      C1524   1.402       .  A
C1520      C1521   1.395       .  A
C1520      H1529   1.084       .  S
C1521      C1522   1.408       .  A
C1521      H1530   1.083       .  S
C1522      C1523   1.409       .  A
C1523      C1524   1.404       .  A
C1523      H1531   1.083       .  S
C1524      H1532   1.083       .  S
C1533      C1534   1.409       .  A
C1533      C1538   1.407       .  A
C1534      C1535   1.398       .  A
C1534      H1547   1.083       .  S
C1535      C1536   1.397       .  A
C1535      H1548   1.084       .  S
C1536      C1537   1.403       .  A
C1536      C1539   1.443       .  S
C1537      C1538   1.402       .  A
C1537      H1549   1.083       .  S
C1538      H1550   1.083       .  S
C1539      C1540   1.208       .  T
C1540      C1541   1.443       .  S
C1541      C1542   1.395       .  A
C1541      C1546   1.405       .  A
C1542      C1543   1.392       .  A
C1542      H1551   1.084       .  S
C1543      C1544   1.410       .  A
C1543      H1552   1.083       .  S
C1544      C1545   1.407       .  A
C1545      C1546   1.407       .  A
C1545      H1553   1.083       .  S
C1546      H1554   1.083       .  S
C1555      C1556   1.408       .  A
C1555      C1560   1.410       .  A
C1556      C1557   1.400       .  A
C1556      H1569   1.083       .  S
C1557      C1558   1.400       .  A
C1557      H1570   1.083       .  S
C1558      C1559   1.400       .  A
C1558      C1561   1.445       .  S
C1559      C1560   1.401       .  A
C1559      H1571   1.083       .  S
C1560      H1572   1.083       .  S
C1561      C1562   1.209       .  T
C1562      C1563   1.445       .  S
C1563      C1564   1.400       .  A
C1563      C1568   1.401       .  A
C1564      C1565   1.399       .  A
C1564      H1573   1.083       .  S
C1565      C1566   1.406       .  A
C1565      H1574   1.083       .  S
C1566      C1567   1.408       .  A
C1567      C1568   1.402       .  A
C1567      H1575   1.083       .  S
C1568      H1576   1.083       .  S
C1577      C1578   1.408       .  A
C1577      C1582   1.410       .  A
C1578      C1579   1.406       .  A
C1578      H1591   1.083       .  S
C1579      C1580   1.403       .  A
C1579      H1592   1.083       .  S
C1580      C1581   1.396       .  A
C1580      C1583   1.442       .  S
C1581      C1582   1.393       .  A
C1581      H1593   1.084       .  S
C1582      H1594   1.083       .  S
C1583      C1584   1.208       .  T
C1584      C1585   1.443       .  S
C1585      C1586   1.401       .  A
C1585      C1590   1.399       .  A
C1586      C1587   1.400       .  A
C1586      H1595   1.084       .  S
C1587      C1588   1.406       .  A
C1587      H1596   1.083       .  S
C1588      C1589   1.410       .  A
C1589      C1590   1.400       .  A
C1589      H1597   1.083       .  S
C1590      H1598   1.083       .  S
C1599      C1600   1.407       .  A
C1599      C1604   1.408       .  A
C1600      C1601   1.403       .  A
C1600      H1613   1.083       .  S
C1601      C1602   1.402       .  A
C1601      H1614   1.083       .  S
C1602      C1603   1.397       .  A
C1602      C1605   1.440       .  S
C1603      C1604   1.394       .  A
C1603      H1615   1.084       .  S
C1604      H1616   1.083       .  S
C1605      C1606   1.206       .  T
C1606      C1607   1.440       .  S
C1607      C1608   1.400       .  A
C1607      C1612   1.398       .  A
C1608      C1609   1.399       .  A
C1608      H1617   1.084       .  S
C1609      C1610   1.407       .  A
C1609      H1618   1.083       .  S
C1610      C1611   1.408       .  A
C1611      C1612   1.399       .  A
C1611      H1619   1.083       .  S
C1612      H1620   1.083       .  S
C1621      C1622   1.410       .  A
C1621      C1626   1.407       .  A
C1622      C1623   1.402       .  A
C1622      H1635   1.082       .  S
C1623      C1624   1.401       .  A
C1623      H1636   1.083       .  S
C1624      C1625   1.398       .  A
C1624      C1627   1.445       .  S
C1625      C1626   1.398       .  A
C1625      H1637   1.084       .  S
C1626      H1638   1.076       .  S
C1627      C1628   1.209       .  T
C1628      C1629   1.445       .  S
C1629      C1630   1.399       .  A
C1629      C1634   1.401       .  A
C1630      C1631   1.400       .  A
C1630      H1639   1.084       .  S
C1631      C1632   1.410       .  A
C1631      H1640   1.083       .  S
C1632      C1633   1.408       .  A
C1633      C1634   1.402       .  A
C1633      H1641   1.083       .  S
C1634      H1642   1.083       .  S
C1643      C1644   1.408       .  A
C1643      C1648   1.409       .  A
C1644      C1645   1.407       .  A
C1644      H1657   1.083       .  S
C1645      C1646   1.405       .  A
C1645      H1658   1.083       .  S
C1646      C1647   1.396       .  A
C1646      C1649   1.443       .  S
C1647      C1648   1.393       .  A
C1647      H1659   1.084       .  S
C1648      H1660   1.083       .  S
C1649      C1650   1.208       .  T
C1650      C1651   1.444       .  S
C1651      C1652   1.403       .  A
C1651      C1656   1.397       .  A
C1652      C1653   1.402       .  A
C1652      H1661   1.083       .  S
C1653      C1654   1.406       .  A
C1653      H1662   1.083       .  S
C1654      C1655   1.410       .  A
C1655      C1656   1.398       .  A
C1655      H1663   1.083       .  S
C1656      H1664   1.084       .  S
C1665      C1666   1.408       .  A
C1665      C1670   1.408       .  A
C1666      C1667   1.393       .  A
C1666      H1679   1.083       .  S
C1667      C1668   1.397       .  A
C1667      H1680   1.084       .  S
C1668      C1669   1.402       .  A
C1668      C1671   1.440       .  S
C1669      C1670   1.403       .  A
C1669      H1681   1.083       .  S
C1670      H1682   1.083       .  S
C1671      C1672   1.206       .  T
C1672      C1673   1.440       .  S
C1673      C1674   1.398       .  A
C1673      C1678   1.401       .  A
C1674      C1675   1.398       .  A
C1674      H1683   1.084       .  S
C1675      C1676   1.410       .  A
C1675      H1684   1.083       .  S
C1676      C1677   1.406       .  A
C1677      C1678   1.400       .  A
C1677      H1685   1.083       .  S
C1678      H1686   1.084       .  S
C1687      C1688   1.409       .  A
C1687      C1692   1.409       .  A
C1688      C1689   1.399       .  A
C1688      H1701   1.083       .  S
C1689      C1690   1.399       .  A
C1689      H1702   1.084       .  S
C1690      C1691   1.400       .  A
C1690      C1693   1.444       .  S
C1691      C1692   1.400       .  A
C1691      H1703   1.083       .  S
C1692      H1704   1.083       .  S
C1693      C1694   1.208       .  T
C1694      C1695   1.443       .  S
C1695      C1696   1.399       .  A
C1695      C1700   1.402       .  A
C1696      C1697   1.397       .  A
C1696      H1705   1.084       .  S
C1697      C1698   1.405       .  A
C1697      H1706   1.078       .  S
C1698      C1699   1.406       .  A
C1699      C1700   1.403       .  A
C1699      H1707   1.083       .  S
C1700      H1708   1.083       .  S
C1709      C1710   1.408       .  A
C1709      C1714   1.406       .  A
C1710      C1711   1.398       .  A
C1710      H1723   1.083       .  S
C1711      C1712   1.398       .  A
C1711      H1724   1.083       .  S
C1712      C1713   1.402       .  A
C1712      C1715   1.441       .  S
C1713      C1714   1.401       .  A
C1713      H1725   1.083       .  S
C1714      H1726   1.083       .  S
C1715      C1716   1.207       .  T
C1716      C1717   1.441       .  S
C1717      C1718   1.396       .  A
C1717      C1722   1.403       .  A
C1718      C1719   1.393       .  A
C1718      H1727   1.084       .  S
C1719      C1720   1.409       .  A
C1719      H1728   1.083       .  S
C1720      C1721   1.408       .  A
C1721      C1722   1.404       .  A
C1721      H1729   1.083       .  S
C1722      H1730   1.083       .  S
C1731      C1732   1.408       .  A
C1731      C1736   1.407       .  A
C1732      C1733   1.393       .  A
C1732      H1745   1.083       .  S
C1733      C1734   1.396       .  A
C1733      H1746   1.084       .  S
C1734      C1735   1.402       .  A
C1734      C1737   1.439       .  S
C1735      C1736   1.403       .  A
C1735      H1747   1.083       .  S
C1736      H1748   1.083       .  S
C1737      C1738   1.206       .  T
C1738      C1739   1.440       .  S
C1739      C1740   1.397       .  A
C1739      C1744   1.402       .  A
C1740      C1741   1.397       .  A
C1740      H1749   1.084       .  S
C1741      C1742   1.410       .  A
C1741      H1750   1.083       .  S
C1742      C1743   1.405       .  A
C1743      C1744   1.401       .  A
C1743      H1751   1.083       .  S
C1744      H1752   1.083       .  S
C1753      C1754   1.409       .  A
C1753      C1758   1.409       .  A
C1754      C1755   1.399       .  A
C1754      H1767   1.083       .  S
C1755      C1756   1.399       .  A
C1755      H1768   1.083       .  S
C1756      C1757   1.400       .  A
C1756      C1759   1.443       .  S
C1757      C1758   1.401       .  A
C1757      H1769   1.083       .  S
C1758      H1770   1.083       .  S
C1759      C1760   1.208       .  T
C1760      C1761   1.444       .  S
C1761      C1762   1.396       .  A
C1761      C1766   1.399       .  A
C1762      C1763   1.398       .  A
C1762      H1771   1.084       .  S
C1763      C1764   1.412       .  A
C1763      H1772   1.076       .  S
C1764      C1765   1.412       .  A
C1765      C1766   1.402       .  A
C1765      H1773   1.081       .  S
C1766      H1774   1.083       .  S
C1775      C1776   1.406       .  A
C1775      C1780   1.410       .  A
C1776      C1777   1.399       .  A
C1776      H1789   1.083       .  S
C1777      C1778   1.401       .  A
C1777      H1790   1.084       .  S
C1778      C1779   1.399       .  A
C1778      C1781   1.441       .  S
C1779      C1780   1.400       .  A
C1779      H1791   1.083       .  S
C1780      H1792   1.083       .  S
C1781      C1782   1.207       .  T
C1782      C1783   1.441       .  S
C1783      C1784   1.402       .  A
C1783      C1788   1.397       .  A
C1784      C1785   1.403       .  A
C1784      H1793   1.083       .  S
C1785      C1786   1.408       .  A
C1785      H1794   1.083       .  S
C1786      C1787   1.408       .  A
C1787      C1788   1.394       .  A
C1787      H1795   1.083       .  S
C1788      H1796   1.084       .  S
C1797      C1798   1.408       .  A
C1797      C1802   1.407       .  A
C1798      C1799   1.394       .  A
C1798      H1811   1.083       .  S
C1799      C1800   1.397       .  A
C1799      H1812   1.084       .  S
C1800      C1801   1.402       .  A
C1800      C1803   1.440       .  S
C1801      C1802   1.403       .  A
C1801      H1813   1.083       .  S
C1802      H1814   1.083       .  S
C1803      C1804   1.207       .  T
C1804      C1805   1.441       .  S
C1805      C1806   1.397       .  A
C1805      C1810   1.402       .  A
C1806      C1807   1.398       .  A
C1806      H1815   1.084       .  S
C1807      C1808   1.410       .  A
C1807      H1816   1.083       .  S
C1808      C1809   1.406       .  A
C1809      C1810   1.401       .  A
C1809      H1817   1.083       .  S
C1810      H1818   1.083       .  S
C1819      C1820   1.409       .  A
C1819      C1824   1.409       .  A
C1820      C1821   1.401       .  A
C1820      H1833   1.083       .  S
C1821      C1822   1.401       .  A
C1821      H1834   1.083       .  S
C1822      C1823   1.401       .  A
C1822      C1825   1.447       .  S
C1823      C1824   1.401       .  A
C1823      H1835   1.083       .  S
C1824      H1836   1.083       .  S
C1825      C1826   1.210       .  T
C1826      C1827   1.447       .  S
C1827      C1828   1.400       .  A
C1827      C1832   1.402       .  A
C1828      C1829   1.399       .  A
C1828      H1837   1.084       .  S
C1829      C1830   1.406       .  A
C1829      H1838   1.083       .  S
C1830      C1831   1.407       .  A
C1831      C1832   1.403       .  A
C1831      H1839   1.083       .  S
C1832      H1840   1.083       .  S
C1841      C1842   1.409       .  A
C1841      C1846   1.408       .  A
C1842      C1843   1.403       .  A
C1842      H1855   1.082       .  S
C1843      C1844   1.401       .  A
C1843      H1856   1.083       .  S
C1844      C1845   1.401       .  A
C1844      C1847   1.451       .  S
C1845      C1846   1.402       .  A
C1845      H1857   1.083       .  S
C1846      H1858   1.082       .  S
C1847      C1848   1.213       .  T
C1848      C1849   1.451       .  S
C1849      C1850   1.402       .  A
C1849      C1854   1.401       .  A
C1850      C1851   1.404       .  A
C1850      H1859   1.083       .  S
C1851      C1852   1.410       .  A
C1851      H1860   1.083       .  S
C1852      C1853   1.410       .  A
C1853      C1854   1.402       .  A
C1853      H1861   1.083       .  S
C1854      H1862   1.083       .  S
C1863      C1864   1.408       .  A
C1863      C1868   1.410       .  A
C1864      C1865   1.401       .  A
C1864      H1877   1.083       .  S
C1865      C1866   1.401       .  A
C1865      H1878   1.083       .  S
C1866      C1867   1.399       .  A
C1866      C1869   1.445       .  S
C1867      C1868   1.400       .  A
C1867      H1879   1.084       .  S
C1868      H1880   1.083       .  S
C1869      C1870   1.209       .  T
C1870      C1871   1.446       .  S
C1871      C1872   1.402       .  A
C1871      C1876   1.399       .  A
C1872      C1873   1.404       .  A
C1872      H1881   1.083       .  S
C1873      C1874   1.408       .  A
C1873      H1882   1.083       .  S
C1874      C1875   1.407       .  A
C1875      C1876   1.398       .  A
C1875      H1883   1.082       .  S
C1876      H1884   1.084       .  S
C1885      C1886   1.413       .  A
C1885      C1890   1.415       .  A
C1886      C1887   1.407       .  A
C1886      H1899   1.083       .  S
C1887      C1888   1.402       .  A
C1887      H1900   1.083       .  S
C1888      C1889   1.400       .  A
C1888      C1891   1.458       .  S
C1889      C1890   1.404       .  A
C1889      H1901   1.084       .  S
C1890      H1902   1.076       .  S
C1891      C1892   1.217       .  T
C1892      C1893   1.458       .  S
C1893      C1894   1.401       .  A
C1893      C1898   1.400       .  A
C1894      C1895   1.405       .  A
C1894      H1903   1.083       .  S
C1895      C1896   1.417       .  A
C1895      H1904   1.083   1_455  S
C1896      C1897   1.418       .  A
C1897      C1898   1.404       .  A
C1897      H1905   1.079       .  S
C1898      H1906   1.083       .  S
C1907      C1908   1.409       .  A
C1907      C1912   1.409       .  A
C1908      C1909   1.400       .  A
C1908      H1921   1.083       .  S
C1909      C1910   1.400       .  A
C1909      H1922   1.084       .  S
C1910      C1911   1.401       .  A
C1910      C1913   1.445       .  S
C1911      C1912   1.402       .  A
C1911      H1923   1.083       .  S
C1912      H1924   1.083       .  S
C1913      C1914   1.209       .  T
C1914      C1915   1.444       .  S
C1915      C1916   1.401       .  A
C1915      C1920   1.398       .  A
C1916      C1917   1.402       .  A
C1916      H1925   1.083       .  S
C1917      C1918   1.409       .  A
C1917      H1926   1.082       .  S
C1918      C1919   1.407       .  A
C1919      C1920   1.399       .  A
C1919      H1927   1.072       .  S
C1920      H1928   1.084       .  S
C1929      C1930   1.410       .  A
C1929      C1934   1.408       .  A
C1930      C1931   1.402       .  A
C1930      H1943   1.082       .  S
C1931      C1932   1.401       .  A
C1931      H1944   1.083       .  S
C1932      C1933   1.397       .  A
C1932      C1935   1.443       .  S
C1933      C1934   1.398       .  A
C1933      H1945   1.084       .  S
C1934      H1946   1.072       .  S
C1935      C1936   1.208       .  T
C1936      C1937   1.443       .  S
C1937      C1938   1.400       .  A
C1937      C1942   1.400       .  A
C1938      C1939   1.399       .  A
C1938      H1947   1.084       .  S
C1939      C1940   1.409       .  A
C1939      H1948   1.083       .  S
C1940      C1941   1.409       .  A
C1941      C1942   1.400       .  A
C1941      H1949   1.083       .  S
C1942      H1950   1.083       .  S
C1951      C1952   1.408       .  A
C1951      C1956   1.408       .  A
C1952      C1953   1.401       .  A
C1952      H1965   1.082       .  S
C1953      C1954   1.401       .  A
C1953      H1966   1.083       .  S
C1954      C1955   1.400       .  A
C1954      C1957   1.446       .  S
C1955      C1956   1.401       .  A
C1955      H1967   1.083       .  S
C1956      H1968   1.082       .  S
C1957      C1958   1.210       .  T
C1958      C1959   1.446       .  S
C1959      C1960   1.400       .  A
C1959      C1964   1.400       .  A
C1960      C1961   1.401       .  A
C1960      H1969   1.083       .  S
C1961      C1962   1.410       .  A
C1961      H1970   1.083       .  S
C1962      C1963   1.408       .  A
C1963      C1964   1.400       .  A
C1963      H1971   1.083       .  S
C1964      H1972   1.083       .  S
C1973      C1974   1.417       .  A
C1973      C1978   1.418       .  A
C1974      C1975   1.403       .  A
C1974      H1987   1.079       .  S
C1975      C1976   1.399       .  A
C1975      H1988   1.083       .  S
C1976      C1977   1.400       .  A
C1976      C1979   1.454       .  S
C1977      C1978   1.404       .  A
C1977      H1989   1.083       .  S
C1978      H1990   1.083   1_565  S
C1979      C1980   1.215       .  T
C1980      C1981   1.454       .  S
C1981      C1982   1.401       .  A
C1981      C1986   1.400       .  A
C1982      C1983   1.404       .  A
C1982      H1991   1.083       .  S
C1983      C1984   1.413       .  A
C1983      H1992   1.083       .  S
C1984      C1985   1.414       .  A
C1985      C1986   1.403       .  A
C1985      H1993   1.076       .  S
C1986      H1994   1.084       .  S
C1995      C1996   1.409       .  A
C1995      C2000   1.407       .  A
C1996      C1997   1.399       .  A
C1996      H2009   1.083       .  S
C1997      C1998   1.399       .  A
C1997      H2010   1.084       .  S
C1998      C1999   1.399       .  A
C1998      C2001   1.439       .  S
C1999      C2000   1.398       .  A
C1999      H2011   1.083       .  S
C2000      H2012   1.083       .  S
C2001      C2002   1.206       .  T
C2002      C2003   1.439       .  S
C2003      C2004   1.400       .  A
C2003      C2008   1.400       .  A
C2004      C2005   1.398       .  A
C2004      H2013   1.084       .  S
C2005      C2006   1.405       .  A
C2005      H2014   1.083       .  S
C2006      C2007   1.406       .  A
C2007      C2008   1.399       .  A
C2007      H2015   1.083       .  S
C2008      H2016   1.083       .  S
C2017      C2018   1.407       .  A
C2017      C2022   1.406       .  A
C2018      C2019   1.400       .  A
C2018      H2031   1.083       .  S
C2019      C2020   1.400       .  A
C2019      H2032   1.084       .  S
C2020      C2021   1.402       .  A
C2020      C2023   1.447       .  S
C2021      C2022   1.403       .  A
C2021      H2033   1.083       .  S
C2022      H2034   1.083       .  S
C2023      C2024   1.211       .  T
C2024      C2025   1.447       .  S
C2025      C2026   1.400       .  A
C2025      C2030   1.401       .  A
C2026      C2027   1.401       .  A
C2026      H2035   1.083       .  S
C2027      C2028   1.410       .  A
C2027      H2036   1.083       .  S
C2028      C2029   1.409       .  A
C2029      C2030   1.402       .  A
C2029      H2037   1.083       .  S
C2030      H2038   1.083       .  S
C2039      C2040   1.408       .  A
C2039      C2044   1.410       .  A
C2040      C2041   1.400       .  A
C2040      H2053   1.083       .  S
C2041      C2042   1.400       .  A
C2041      H2054   1.084       .  S
C2042      C2043   1.399       .  A
C2042      C2045   1.441       .  S
C2043      C2044   1.399       .  A
C2043      H2055   1.084       .  S
C2044      H2056   1.083       .  S
C2045      C2046   1.207       .  T
C2046      C2047   1.441       .  S
C2047      C2048   1.399       .  A
C2047      C2052   1.401       .  A
C2048      C2049   1.398       .  A
C2048      H2057   1.084       .  S
C2049      C2050   1.407       .  A
C2049      H2058   1.083       .  S
C2050      C2051   1.406       .  A
C2051      C2052   1.400       .  A
C2051      H2059   1.083       .  S
C2052      H2060   1.083       .  S
C2061      C2062   1.415       .  A
C2061      C2066   1.412       .  A
C2062      C2063   1.401       .  A
C2062      H2075   1.076       .  S
C2063      C2064   1.398       .  A
C2063      H2076   1.084       .  S
C2064      C2065   1.401       .  A
C2064      C2067   1.452       .  S
C2065      C2066   1.405       .  A
C2065      H2077   1.083       .  S
C2066      H2078   1.083       .  S
C2067      C2068   1.214       .  T
C2068      C2069   1.452       .  S
C2069      C2070   1.400       .  A
C2069      C2074   1.399       .  A
C2070      C2071   1.404       .  A
C2070      H2079   1.083       .  S
C2071      C2072   1.417       .  A
C2071      H2080   1.083   1_655  S
C2072      C2073   1.418       .  A
C2073      C2074   1.402       .  A
C2073      H2081   1.079   1_545  S
C2074      H2082   1.084       .  S
C2083      C2084   1.410       .  A
C2083      C2088   1.410       .  A
C2084      C2085   1.404       .  A
C2084      H2097   1.083       .  S
C2085      C2086   1.402       .  A
C2085      H2098   1.083       .  S
C2086      C2087   1.401       .  A
C2086      C2089   1.451       .  S
C2087      C2088   1.402       .  A
C2087      H2099   1.083       .  S
C2088      H2100   1.083       .  S
C2089      C2090   1.212       .  T
C2090      C2091   1.450       .  S
C2091      C2092   1.402       .  A
C2091      C2096   1.400       .  A
C2092      C2093   1.403       .  A
C2092      H2101   1.083       .  S
C2093      C2094   1.409       .  A
C2093      H2102   1.082       .  S
C2094      C2095   1.409       .  A
C2095      C2096   1.401       .  A
C2095      H2103   1.081       .  S
C2096      H2104   1.083       .  S
C2105      C2106   1.409       .  A
C2105      C2110   1.408       .  A
C2106      C2107   1.399       .  A
C2106      H2119   1.083       .  S
C2107      C2108   1.399       .  A
C2107      H2120   1.084       .  S
C2108      C2109   1.402       .  A
C2108      C2111   1.446       .  S
C2109      C2110   1.403       .  A
C2109      H2121   1.083       .  S
C2110      H2122   1.083       .  S
C2111      C2112   1.210       .  T
C2112      C2113   1.446       .  S
C2113      C2114   1.402       .  A
C2113      C2118   1.400       .  A
C2114      C2115   1.402       .  A
C2114      H2123   1.083       .  S
C2115      C2116   1.407       .  A
C2115      H2124   1.083       .  S
C2116      C2117   1.406       .  A
C2117      C2118   1.400       .  A
C2117      H2125   1.083       .  S
C2118      H2126   1.084       .  S
C2127      C2128   1.409       .  A
C2127      C2132   1.408       .  A
C2128      C2129   1.402       .  A
C2128      H2141   1.082       .  S
C2129      C2130   1.401       .  A
C2129      H2142   1.083       .  S
C2130      C2131   1.400       .  A
C2130      C2133   1.447       .  S
C2131      C2132   1.401       .  A
C2131      H2143   1.083       .  S
C2132      H2144   1.082       .  S
C2133      C2134   1.210       .  T
C2134      C2135   1.447       .  S
C2135      C2136   1.400       .  A
C2135      C2140   1.401       .  A
C2136      C2137   1.401       .  A
C2136      H2145   1.083       .  S
C2137      C2138   1.409       .  A
C2137      H2146   1.083       .  S
C2138      C2139   1.409       .  A
C2139      C2140   1.401       .  A
C2139      H2147   1.083       .  S
C2140      H2148   1.083       .  S
C2149      C2150   1.413       .  A
C2149      C2154   1.415       .  A
C2150      C2151   1.406       .  A
C2150      H2163   1.083       .  S
C2151      C2152   1.402       .  A
C2151      H2164   1.083       .  S
C2152      C2153   1.400       .  A
C2152      C2155   1.457       .  S
C2153      C2154   1.404       .  A
C2153      H2165   1.084       .  S
C2154      H2166   1.076       .  S
C2155      C2156   1.217       .  T
C2156      C2157   1.457       .  S
C2157      C2158   1.399       .  A
C2157      C2162   1.401       .  A
C2158      C2159   1.403       .  A
C2158      H2167   1.084       .  S
C2159      C2160   1.418       .  A
C2159      H2168   1.079   1_455  S
C2160      C2161   1.417       .  A
C2161      C2162   1.406       .  A
C2161      H2169   1.083   1_545  S
C2162      H2170   1.083       .  S
