geometry optimzed in LAMMPS
_audit_creation_date              2020-12-01 
_audit_creation_method            'lammps2cif' 
_symmetry_space_group_name_H-M    'P1' 
_symmetry_Int_Tables_number       1 
_symmetry_cell_setting            triclinic 
loop_ 
_symmetry_equiv_pos_as_xyz 
  x,y,z 
_cell_length_a                    34.65920572 
_cell_length_b                    34.52018210473341 
_cell_length_c                    34.614979576213514 
_cell_angle_alpha                 89.84408457573568 
_cell_angle_beta                  89.78692774230952 
_cell_angle_gamma                 89.94864805854706 
loop_ 
_atom_site_label 
_atom_site_type_symbol 
_atom_site_fract_x 
_atom_site_fract_y 
_atom_site_fract_z 
_atom_site_charge 
C1          C  0.08803445  0.89139348  0.46734480     0.03900
C2          C  0.07207308  0.88348124  0.50449997     0.03900
C3          C  0.09411010  0.89336422  0.53731107     0.03900
C4          C  0.12257170  0.92287354  0.53383287     0.03900
C5          C  0.13018049  0.94071193  0.49742346     0.03900
C6          C  0.11750901  0.92022474  0.46396815     0.03900
C7          C  0.11967178  0.05777475  0.53378701     0.03900
C8          C  0.13064257  0.03826224  0.49910937     0.03900
C9          C  0.12130249  0.05738156  0.46384237     0.03900
C10         C  0.09323724  0.08733958  0.46308951     0.03900
C11         C  0.07264410  0.09578653  0.49712320     0.03900
C12         C  0.09011294  0.08663555  0.53304934     0.03900
C13         C  0.93896717  0.07286485  0.53963145     0.03900
C14         C  0.96254579  0.08072904  0.50736062     0.03900
C15         C  0.94786082  0.07174894  0.47015800     0.03900
C16         C  0.91719426  0.04414919  0.46757589     0.03900
C17         C  0.90110791  0.02705226  0.50138634     0.03900
C18         C  0.90830439  0.04605079  0.53672163     0.03900
C19         C  0.90528726  0.91264683  0.46342685     0.03900
C20         C  0.93629667  0.88614643  0.46199262     0.03900
C21         C  0.96028733  0.88160589  0.49430094     0.03900
C22         C  0.94443414  0.89091115  0.53102359     0.03900
C23         C  0.91218706  0.91676716  0.53281366     0.03900
C24         C  0.89734710  0.93301086  0.49807953     0.03900
C25         C  0.48385671  0.05571124  0.10952960     0.03900
C26         C  0.48430509  0.08429552  0.07975793     0.03900
C27         C  0.52043878  0.09563791  0.06350699     0.03900
C28         C  0.55364929  0.09009837  0.08653046     0.03900
C29         C  0.55286215  0.06147992  0.11590228     0.03900
C30         C  0.51924114  0.03918291  0.12164785     0.03900
C31         C  0.48009891  0.05450100  0.89703956     0.03900
C32         C  0.47832213  0.08189812  0.92748323     0.03900
C33         C  0.51069511  0.08809749  0.95133797     0.03900
C34         C  0.54765373  0.07816338  0.93626139     0.03900
C35         C  0.54946697  0.05084843  0.90527642     0.03900
C36         C  0.51515061  0.03436385  0.88976063     0.03900
C37         C  0.54644160  0.91234650  0.10842188     0.03900
C38         C  0.50876785  0.92707285  0.11533393     0.03900
C39         C  0.47741632  0.90335369  0.10418288     0.03900
C40         C  0.48205926  0.87538716  0.07457639     0.03900
C41         C  0.51913629  0.87102182  0.05777473     0.03900
C42         C  0.55099605  0.88344651  0.07973807     0.03900
C43         C  0.47954190  0.89303405  0.92319187     0.03900
C44         C  0.48359867  0.92167839  0.89410185     0.03900
C45         C  0.52002568  0.93900437  0.88741939     0.03900
C46         C  0.55287228  0.91855089  0.90148483     0.03900
C47         C  0.54898636  0.89023809  0.93154539     0.03900
C48         C  0.51132655  0.88271638  0.94651395     0.03900
C49         C  0.09237543  0.45194951  0.90797141     0.03900
C50         C  0.06840291  0.48375148  0.89859835     0.03900
C51         C  0.08323084  0.52168179  0.90571349     0.03900
C52         C  0.11456600  0.52590674  0.93225107     0.03900
C53         C  0.12920619  0.49309195  0.95233579     0.03900
C54         C  0.12231752  0.45646973  0.93540920     0.03900
C55         C  0.11260504  0.52172882  0.06623327     0.03900
C56         C  0.12892845  0.48922911  0.04668478     0.03900
C57         C  0.12286485  0.45245811  0.06374146     0.03900
C58         C  0.09173897  0.44760660  0.08991752     0.03900
C59         C  0.06752220  0.47903324  0.09983334     0.03900
C60         C  0.08212411  0.51706130  0.09382818     0.03900
C61         C  0.94027713  0.45043198  0.10223901     0.03900
C62         C  0.95624574  0.48652398  0.11327175     0.03900
C63         C  0.93362388  0.51984491  0.10679569     0.03900
C64         C  0.90530382  0.51964776  0.07756300     0.03900
C65         C  0.90104232  0.48627302  0.05456716     0.03900
C66         C  0.91280130  0.45041753  0.07144651     0.03900
C67         C  0.94148119  0.45195810  0.88800390     0.03900
C68         C  0.95714023  0.48962060  0.88293903     0.03900
C69         C  0.93403348  0.52114823  0.89454069     0.03900
C70         C  0.90743340  0.51579837  0.92565255     0.03900
C71         C  0.90262180  0.47767545  0.94124259     0.03900
C72         C  0.91250995  0.44646335  0.91667946     0.03900
O73         O  0.16440673  0.93694002  0.79871509    -0.78500
O74         O  0.21096527  0.02106944  0.86127037    -0.78600
O75         O  0.25563751  0.90555905  0.81485689    -0.78600
O76         O  0.18391787  0.06507733  0.77852062    -0.78500
O77         O  0.21947319  0.94079911  0.85372844    -0.78600
O78         O  0.15447340  0.01611852  0.80669247    -0.78500
O79         O  0.23802234  0.06825867  0.82850092    -0.78500
O80         O  0.20373294  0.90280693  0.76248746    -0.78600
C81         C  0.17381893  0.90494628  0.78378974     1.11200
C82         C  0.21863813  0.05666387  0.85752977     1.11000
C83         C  0.23377634  0.90847452  0.84417109     1.11200
C84         C  0.15604048  0.05171960  0.79878157     1.11100
O85         O  0.17427769  0.02443537  0.72504044    -0.78500
O86         O  0.29969554  0.95392767  0.83322503    -0.78600
O87         O  0.24728807  0.95508512  0.71172395    -0.78500
O88         O  0.29606723  0.03745942  0.77593384    -0.78500
O89         O  0.29192913  0.02821319  0.83880804    -0.78600
O90         O  0.18417619  0.95054556  0.71792533    -0.78500
O91         O  0.23651065  0.03537355  0.71878043    -0.78500
O92         O  0.30536366  0.95647539  0.76986237    -0.78600
Co93       Co  0.17326724  0.98223321  0.76549356     1.51500
Co94       Co  0.25201502  0.98589061  0.84298921     1.51700
Co95       Co  0.25239538  0.93526776  0.76520403     1.51600
Co96       Co  0.23918895  0.04643116  0.77487281     1.51500
O97         O  0.22955118  0.98752238  0.78688984    -1.40500
C98         C  0.20291288  0.03450857  0.70444725     1.11100
C99         C  0.32048930  0.95292987  0.80301025     1.11200
C100        C  0.21419019  0.95083241  0.69686692     1.11100
C101        C  0.31166412  0.03711585  0.80915757     1.11100
O102        O  0.06016006  0.13273066  0.80365134    -0.78500
O103        O  0.96588804  0.18924985  0.84852081    -0.78600
O104        O  0.09313720  0.21790419  0.82801833    -0.78600
O105        O  0.93832001  0.16371056  0.76265791    -0.78500
O106        O  0.04644611  0.18698260  0.85890711    -0.78600
O107        O  0.97951269  0.13109210  0.79893841    -0.78500
O108        O  0.93046766  0.22223789  0.80783944    -0.78500
O109        O  0.10172616  0.16932451  0.77283943    -0.78600
C110        C  0.09457892  0.14041754  0.79416175     1.11200
C111        C  0.93327801  0.20219515  0.83830409     1.11000
C112        C  0.08116928  0.19813720  0.85713938     1.11200
C113        C  0.94599830  0.13534319  0.78526653     1.11100
O114        O  0.98672093  0.14737339  0.71758851    -0.78500
O115        O  0.04828063  0.26799439  0.83831368    -0.78600
O116        O  0.06418320  0.21612719  0.71488913    -0.78500
O117        O  0.97798857  0.27319251  0.76170575    -0.78500
O118        O  0.97518504  0.27005702  0.82550145    -0.78600
O119        O  0.06095054  0.15244850  0.72142987    -0.78500
O120        O  0.98295452  0.21002742  0.70679734    -0.78500
O121        O  0.05882061  0.27579468  0.77605210    -0.78600
Co122      Co  0.02145614  0.14498109  0.76372405     1.51500
Co123      Co  0.00938132  0.22491881  0.83890981     1.51700
Co124      Co  0.07409602  0.21995600  0.77234438     1.51600
Co125      Co  0.96282774  0.21728520  0.76012157     1.51500
O126        O  0.01703263  0.20223058  0.78331510    -1.40500
C127        C  0.98094015  0.17541157  0.69473216     1.11100
C128        C  0.05826925  0.28936575  0.81026909     1.11200
C129        C  0.06586670  0.18207499  0.70014740     1.11100
C130        C  0.97428103  0.28971797  0.79446813     1.11100
O131        O  0.05946184  0.83678421  0.20438418    -0.78500
O132        O  0.98506580  0.78663577  0.14310034    -0.78600
O133        O  0.10080384  0.74566839  0.18927709    -0.78600
O134        O  0.93372599  0.80614237  0.22832639    -0.78500
O135        O  0.06537393  0.78077823  0.14996966    -0.78600
O136        O  0.97724253  0.84183226  0.19882716    -0.78500
O137        O  0.93808910  0.75649950  0.17374305    -0.78500
O138        O  0.09662471  0.79895504  0.24018193    -0.78600
C139        C  0.09236859  0.82780960  0.21773335     1.11200
C140        C  0.95007523  0.77677760  0.14512778     1.11000
C141        C  0.09770594  0.76617277  0.15882237     1.11200
C142        C  0.94216693  0.83469722  0.20703343     1.11100
O143        O  0.97513575  0.81985612  0.28004707    -0.78500
O144        O  0.05463239  0.69992408  0.16953960    -0.78600
O145        O  0.05001721  0.75445695  0.29351357    -0.78500
O146        O  0.97226405  0.69889413  0.22654975    -0.78500
O147        O  0.98071468  0.70478096  0.16374633    -0.78600
O148        O  0.04931884  0.81798318  0.28506845    -0.78500
O149        O  0.96867450  0.75646409  0.28538500    -0.78500
O150        O  0.05234152  0.69202459  0.23279219    -0.78600
Co151      Co  0.01553292  0.82517153  0.23848378     1.51500
Co152      Co  0.02108690  0.74661285  0.16062141     1.51700
Co153      Co  0.06936774  0.74794318  0.23870218     1.51600
Co154      Co  0.95841217  0.75408562  0.22882076     1.51500
O155        O  0.01618256  0.76825202  0.21707277    -1.40500
C156        C  0.96726121  0.79013520  0.30022376     1.11100
C157        C  0.05573807  0.67774281  0.19870869     1.11200
C158        C  0.05227451  0.78886551  0.30729436     1.11100
C159        C  0.97175752  0.68449428  0.19303177     1.11100
O160        O  0.29451140  0.81869292  0.03981118    -0.78500
O161        O  0.18093602  0.71044160  0.95403550    -0.78600
O162        O  0.23783398  0.69878591  0.03299166    -0.84600
O163        O  0.30206457  0.76548001  0.95776019    -0.78500
O164        O  0.17513909  0.70734203  0.02825580    -0.78600
O165        O  0.29431185  0.82818072  0.96580621    -0.78500
O166        O  0.24446727  0.70483269  0.95191764    -0.78500
O167        O  0.29880432  0.75491368  0.03887227    -0.78600
C168        C  0.31469171  0.78805281  0.04230420     1.11200
C169        C  0.21091433  0.68988612  0.94935421     1.11000
C170        C  0.20383965  0.68549382  0.03421249     1.11200
C171        C  0.31572502  0.79961088  0.95763154     1.11100
O172        O  0.21274217  0.84723128  0.96559823    -0.78500
O173        O  0.15562591  0.78832927  0.03368981    -0.78600
O174        O  0.24482679  0.80107138  0.08304653    -0.78500
O175        O  0.19752674  0.76128556  0.91182654    -0.78500
O176        O  0.15910161  0.79154908  0.95223604    -0.78600
O177        O  0.21262549  0.83960634  0.04467014    -0.78500
O178        O  0.24556116  0.81648131  0.92042959    -0.78500
O179        O  0.18840858  0.75359150  0.07609093    -0.78600
Co180      Co  0.25020569  0.82968135  0.00358737     1.51500
Co181      Co  0.17173774  0.75290967  0.99250936     1.51700
Co182      Co  0.24258617  0.75227796  0.05246258     1.51600
Co183      Co  0.24741922  0.76162673  0.94081757     1.51500
O184        O  0.22837791  0.77368309  0.99727600    -1.40500
C185        C  0.22392841  0.84450680  0.93106575     1.11100
C186        C  0.15964525  0.77536844  0.06768662     1.11200
C187        C  0.22360978  0.83041933  0.07811352     1.11100
C188        C  0.16727138  0.78088277  0.91817675     1.11100
O189        O  0.06223998  0.15671415  0.28217139    -0.78500
O190        O  0.97165352  0.26541229  0.17292258    -0.78600
O191        O  0.05339111  0.27637654  0.22301293    -0.78600
O192        O  0.98111161  0.20851546  0.29549601    -0.78500
O193        O  0.04506130  0.26611347  0.16104308    -0.78600
O194        O  0.98858592  0.14599212  0.28585565    -0.78500
O195        O  0.97295769  0.27165643  0.23658456    -0.78500
O196        O  0.06257306  0.22080620  0.28586036    -0.78600
C197        C  0.06624243  0.18742726  0.30180475     1.11200
C198        C  0.96919380  0.28660084  0.20269981     1.11000
C199        C  0.05344652  0.28859799  0.18850994     1.11200
C200        C  0.98170836  0.17386829  0.30856153     1.11100
O201        O  0.98400211  0.12764133  0.20486459    -0.78500
O202        O  0.04670195  0.18451972  0.14355607    -0.78600
O203        O  0.10366650  0.17509610  0.23148617    -0.78500
O204        O  0.92926986  0.21602581  0.19331345    -0.78500
O205        O  0.96644892  0.18376817  0.15356470    -0.78600
O206        O  0.06534400  0.13521862  0.20114620    -0.78500
O207        O  0.94041492  0.15901396  0.23980101    -0.78500
O208        O  0.09232129  0.21867002  0.17212616    -0.78600
Co209      Co  0.02440300  0.14524459  0.23999476     1.51500
Co210      Co  0.00812867  0.22151655  0.16190540     1.51700
Co211      Co  0.07258848  0.22271881  0.22846517     1.51600
Co212      Co  0.96144495  0.21414314  0.24111615     1.51500
O213        O  0.01659964  0.20137641  0.21847886    -1.40500
C214        C  0.94990518  0.13068985  0.21780783     1.11100
C215        C  0.08090777  0.19711558  0.14405451     1.11200
C216        C  0.09903265  0.14552509  0.21103669     1.11100
C217        C  0.93337521  0.19619699  0.16291945     1.11100
O218        O  0.17215009  0.94928383  0.27114579    -0.78500
O219        O  0.29505271  0.02170663  0.16165783    -0.78600
O220        O  0.29309557  0.94127685  0.21750619    -0.78600
O221        O  0.23526489  0.02293340  0.27982771    -0.78500
O222        O  0.28781620  0.94776453  0.15452570    -0.78600
O223        O  0.17272183  0.02405805  0.27086084    -0.78500
O224        O  0.29742640  0.02314036  0.22553199    -0.78500
O225        O  0.23511006  0.94140195  0.27676879    -0.78600
C226        C  0.20149677  0.94179153  0.29172987     1.11200
C227        C  0.31423671  0.02465484  0.19272364     1.11000
C228        C  0.30778408  0.93958214  0.18398951     1.11200
C229        C  0.20152885  0.02705615  0.29302932     1.11100
O230        O  0.15728199  0.02533406  0.18774324    -0.78500
O231        O  0.20731289  0.95463958  0.13325513    -0.78600
O232        O  0.18468446  0.90466676  0.22123798    -0.78500
O233        O  0.24966798  0.07011558  0.17737421    -0.78500
O234        O  0.21540059  0.03503399  0.13774072    -0.78600
O235        O  0.15304064  0.94796347  0.18829562    -0.78500
O236        O  0.19001065  0.06771037  0.22177013    -0.78500
O237        O  0.23467987  0.90749412  0.16665080    -0.78600
Co238      Co  0.16766663  0.98672101  0.22642871     1.51500
Co239      Co  0.24782981  0.98970229  0.15054628     1.51700
Co240      Co  0.23744356  0.92880157  0.22067487     1.51600
Co241      Co  0.24259844  0.04084432  0.22622461     1.51500
O242        O  0.22452983  0.98643425  0.20639925    -1.40500
C243        C  0.16190108  0.05926646  0.19925141     1.11100
C244        C  0.21495085  0.91917153  0.13776338     1.11200
C245        C  0.15610260  0.91387554  0.20032653     1.11100
C246        C  0.22915716  0.06745918  0.14756198     1.11100
O247        O  0.20846797  0.13416972  0.02895168    -0.78500
O248        O  0.15896292  0.19917012  0.95745845    -0.78600
O249        O  0.20014221  0.22132497  0.08208058    -0.78600
O250        O  0.24788019  0.17624598  0.91211913    -0.78500
O251        O  0.15897200  0.19511657  0.04161877    -0.78600
O252        O  0.21154811  0.14052126  0.94982584    -0.78500
O253        O  0.19835537  0.23081236  0.91797938    -0.78500
O254        O  0.24306553  0.16161348  0.07447587    -0.78600
C255        C  0.21964958  0.13528485  0.06342221     1.11200
C256        C  0.16771725  0.21133411  0.92374186     1.11000
C257        C  0.16839364  0.20437336  0.07598075     1.11200
C258        C  0.22509355  0.14783947  0.91676296     1.11100
O259        O  0.29445049  0.15414542  0.95646180    -0.78500
O260        O  0.18884463  0.27334015  0.03982687    -0.78600
O261        O  0.30502652  0.20720207  0.03825048    -0.78500
O262        O  0.25028688  0.27955435  0.96248734    -0.78500
O263        O  0.18677160  0.27753114  0.96554913    -0.78600
O264        O  0.29218402  0.14536809  0.03050943    -0.78500
O265        O  0.30508850  0.21711359  0.95804347    -0.78500
O266        O  0.25258267  0.27320956  0.04322042    -0.78600
Co267      Co  0.24857950  0.14772173  0.99185528     1.51500
Co268      Co  0.17703699  0.23215573  0.00069819     1.51700
Co269      Co  0.25037308  0.21617120  0.05415165     1.51600
Co270      Co  0.25031777  0.22559917  0.94299220     1.51500
O271        O  0.23170940  0.20572444  0.99745858    -1.40500
C272        C  0.31744422  0.18263844  0.95403866     1.11100
C273        C  0.22036065  0.29115623  0.04524195     1.11200
C274        C  0.31599872  0.17203703  0.03845429     1.11100
C275        C  0.21780172  0.29648290  0.96114365     1.11100
O276        O  0.85109167  0.01334623  0.28657122    -0.78500
O277        O  0.73938835  0.95237821  0.15833492    -0.78600
O278        O  0.72923986  0.01609772  0.23726646    -0.78600
O279        O  0.79350573  0.93069037  0.27661145    -0.78500
O280        O  0.73389151  0.02522117  0.17438055    -0.78600
O281        O  0.85612705  0.94016020  0.27248554    -0.78500
O282        O  0.73513301  0.93603678  0.21961150    -0.78500
O283        O  0.78803385  0.01073852  0.29394537    -0.78600
C284        C  0.82156529  0.01347560  0.30814115     1.11200
C285        C  0.71944467  0.94039260  0.18675495     1.11000
C286        C  0.71377727  0.02354343  0.20502169     1.11200
C287        C  0.82660325  0.93009797  0.29186849     1.11100
O288        O  0.87686519  0.95622144  0.19162394    -0.78500
O289        O  0.81444584  0.03868473  0.15494840    -0.78600
O290        O  0.83182301  0.06619944  0.24773972    -0.78500
O291        O  0.79298168  0.91033519  0.16398623    -0.78500
O292        O  0.82070830  0.96043306  0.13659072    -0.78600
O293        O  0.87041039  0.03471421  0.20824672    -0.78500
O294        O  0.84685415  0.90535845  0.21494731    -0.78500
O295        O  0.77884402  0.07108543  0.19639072    -0.78600
Co296      Co  0.85971618  0.98622729  0.23631072     1.51500
Co297      Co  0.78057974  0.99380658  0.15974884     1.51700
Co298      Co  0.78242048  0.03570456  0.24266934     1.51600
Co299      Co  0.79179886  0.92552029  0.21984993     1.51500
O300        O  0.80322857  0.98520710  0.21501775    -1.40500
C301        C  0.87582717  0.92025299  0.19738770     1.11100
C302        C  0.79985339  0.07022903  0.16628746     1.11200
C303        C  0.86160980  0.06535959  0.22627008     1.11100
C304        C  0.81272349  0.92474858  0.13647679     1.11100
O305        O  0.74044119  0.14656496  0.04318028    -0.78500
O306        O  0.85342105  0.25917033  0.95958848    -0.78600
O307        O  0.79383420  0.26796869  0.03980478    -0.78600
O308        O  0.73096859  0.20413439  0.96152284    -0.78500
O309        O  0.85668407  0.26151211  0.03408756    -0.78600
O310        O  0.73865496  0.14120783  0.96865453    -0.78500
O311        O  0.79006767  0.26490417  0.95661772    -0.78500
O312        O  0.73512193  0.21017278  0.04504607    -0.78600
C313        C  0.72015050  0.17673231  0.04834175     1.11200
C314        C  0.82365636  0.27961433  0.95335310     1.11000
C315        C  0.82730895  0.28268587  0.03937399     1.11200
C316        C  0.71672426  0.16997553  0.96260039     1.11100
O317        O  0.82067450  0.12238527  0.96560911    -0.78500
O318        O  0.87710492  0.17974593  0.03813343    -0.78600
O319        O  0.79088907  0.16221186  0.08604237    -0.78500
O320        O  0.83877681  0.20795637  0.91712878    -0.78500
O321        O  0.87385628  0.17705946  0.95971619    -0.78600
O322        O  0.82248696  0.12676807  0.04423686    -0.78500
O323        O  0.78708366  0.15472448  0.92261073    -0.78500
O324        O  0.84480064  0.21338391  0.08114311    -0.78600
Co325      Co  0.78378688  0.13813520  0.00513224     1.51500
Co326      Co  0.86128690  0.21611929  0.99817321     1.51700
Co327      Co  0.79097099  0.21339781  0.05780148     1.51600
Co328      Co  0.78670787  0.20832360  0.94481286     1.51500
O329        O  0.80489270  0.19472330  0.00142471    -1.40500
C330        C  0.80965507  0.12700754  0.93134990     1.11100
C331        C  0.87325825  0.19161686  0.07220499     1.11200
C332        C  0.81172778  0.13290370  0.07836582     1.11100
C333        C  0.86862514  0.18797566  0.92552352     1.11100
O334        O  0.05551211  0.82527908  0.72300594    -0.78500
O335        O  0.97165139  0.70566633  0.83000137    -0.78600
O336        O  0.05621517  0.70209094  0.77732068    -0.78600
O337        O  0.98027179  0.76071111  0.70792435    -0.78500
O338        O  0.04544338  0.70899677  0.83962032    -0.78600
O339        O  0.98148731  0.82407458  0.71575747    -0.78500
O340        O  0.97439623  0.69946681  0.76653493    -0.78500
O341        O  0.06226659  0.76202587  0.71688100    -0.78600
C342        C  0.06378338  0.79614624  0.70237216     1.11200
C343        C  0.96894840  0.68482489  0.80003972     1.11000
C344        C  0.05381173  0.68754272  0.81116073     1.11200
C345        C  0.97868636  0.79483501  0.69386102     1.11100
O346        O  0.97002067  0.84303862  0.79669994    -0.78500
O347        O  0.04174129  0.79067837  0.85961804    -0.78600
O348        O  0.09554194  0.81118212  0.77613277    -0.78500
O349        O  0.92649907  0.75278458  0.80976706    -0.78500
O350        O  0.96196092  0.78651753  0.84985216    -0.78600
O351        O  0.05015309  0.84522954  0.80438281    -0.78500
O352        O  0.93267356  0.80713107  0.75988842    -0.78500
O353        O  0.08912420  0.76022312  0.82992022    -0.78600
Co354      Co  0.01393305  0.83034014  0.76339734     1.51500
Co355      Co  0.00568822  0.75146893  0.84074513     1.51700
Co356      Co  0.07053413  0.75841901  0.77444981     1.51600
Co357      Co  0.95901065  0.75520712  0.76144591     1.51500
O358        O  0.01236507  0.77333852  0.78449003    -1.40500
C359        C  0.93728821  0.83564415  0.78259244     1.11100
C360        C  0.07689273  0.78131566  0.85770795     1.11200
C361        C  0.08521714  0.84086510  0.79530437     1.11100
C362        C  0.92960949  0.77256412  0.84044009     1.11100
O363        O  0.86743820  0.04002227  0.79045544    -0.78500
O364        O  0.82533041  0.95776081  0.85872304    -0.78600
O365        O  0.77974744  0.07294034  0.81289280    -0.78600
O366        O  0.84567302  0.91126388  0.77605338    -0.78500
O367        O  0.81798630  0.03732212  0.84931983    -0.78600
O368        O  0.87810767  0.96002014  0.80071010    -0.78500
O369        O  0.79532602  0.91002504  0.83021006    -0.78500
O370        O  0.82631419  0.07327173  0.75547727    -0.78600
C371        C  0.85739701  0.07155233  0.77471277     1.11200
C372        C  0.81598511  0.92251300  0.85792217     1.11000
C373        C  0.80306574  0.06967684  0.84093806     1.11200
C374        C  0.87505838  0.92420898  0.79377554     1.11100
O375        O  0.85405422  0.95029709  0.72115462    -0.78500
O376        O  0.73654373  0.02598309  0.83670088    -0.78600
O377        O  0.77849007  0.02010215  0.71130446    -0.78500
O378        O  0.73515306  0.94062003  0.77961751    -0.78500
O379        O  0.74282494  0.95161051  0.84194995    -0.78600
O380        O  0.84216321  0.02341597  0.71226558    -0.78500
O381        O  0.79160554  0.93959609  0.71829613    -0.78500
O382        O  0.72509394  0.02164334  0.77446405    -0.78600
Co383      Co  0.85681941  0.99348085  0.75987891     1.51500
Co384      Co  0.78385196  0.99302051  0.84264141     1.51700
Co385      Co  0.77795602  0.04168451  0.76409452     1.51600
Co386      Co  0.79127867  0.93052035  0.77543938     1.51500
O387        O  0.80206024  0.98956888  0.78512655    -1.40500
C388        C  0.82468546  0.93999018  0.70218592     1.11100
C389        C  0.71306304  0.02613796  0.80883908     1.11200
C390        C  0.81055138  0.02339431  0.69384810     1.11100
C391        C  0.72172485  0.94154194  0.81379015     1.11100
O392        O  0.81873890  0.84311165  0.03943296    -0.78500
O393        O  0.87374942  0.78501983  0.96650278    -0.78600
O394        O  0.83124429  0.75108709  0.08565112    -0.78600
O395        O  0.78653699  0.80547722  0.91739645    -0.78500
O396        O  0.87084078  0.78251559  0.04734537    -0.78600
O397        O  0.81922776  0.84240524  0.95714194    -0.78500
O398        O  0.84006639  0.75453188  0.92194119    -0.78500
O399        O  0.78481584  0.80819535  0.08108278    -0.78600
C400        C  0.80737702  0.83640153  0.07367932     1.11200
C401        C  0.86915231  0.77506377  0.93176517     1.11000
C402        C  0.86186929  0.77044034  0.08076937     1.11200
C403        C  0.80792089  0.83460164  0.92320724     1.11100
O404        O  0.73747029  0.82333978  0.96128697    -0.78500
O405        O  0.84577370  0.70228081  0.04050540    -0.78600
O406        O  0.72817453  0.76207363  0.03870660    -0.78500
O407        O  0.78807604  0.69899983  0.96109839    -0.78500
O408        O  0.85110399  0.70396444  0.96607857    -0.78600
O409        O  0.73735848  0.82513258  0.03588606    -0.78500
O410        O  0.72944064  0.75997534  0.95817515    -0.78500
O411        O  0.78215373  0.69988073  0.04173610    -0.78600
Co412      Co  0.78169254  0.82929118  0.99866153     1.51500
Co413      Co  0.85663571  0.74713142  0.00479356     1.51700
Co414      Co  0.78167009  0.75547978  0.05640452     1.51600
Co415      Co  0.78593788  0.75451929  0.94497346     1.51500
O416        O  0.80131240  0.77151866  0.00116577    -1.40500
C417        C  0.71546934  0.79431372  0.95681098     1.11100
C418        C  0.81473751  0.68328073  0.04493591     1.11200
C419        C  0.71544898  0.79628874  0.04151193     1.11100
C420        C  0.82135291  0.68347580  0.96032946     1.11100
C421        C  0.81588664  0.85934626  0.88946127    -0.14800
C422        C  0.82430171  0.89714030  0.89140013    -0.30000
H423        H  0.80799509  0.84710415  0.86166070     0.14200
H424        H  0.83206136  0.91022784  0.91880271     0.14800
C425        C  0.89614202  0.77466397  0.86638715    -0.14800
C426        C  0.89959920  0.78439800  0.90360104    -0.30000
H427        H  0.86911714  0.76276945  0.85592494     0.14200
H428        H  0.92665970  0.79592517  0.91435740     0.14800
C429        C  0.90732980  0.89764367  0.80118252    -0.14800
C430        C  0.90419253  0.86070089  0.78964841    -0.30000
H431        H  0.93482593  0.90925476  0.81069137     0.14200
H432        H  0.87664835  0.84968165  0.77951999     0.14800
C433        C  0.80829794  0.10291155  0.86597348    -0.14800
C434        C  0.82005385  0.09829462  0.90237856    -0.30000
H435        H  0.79560249  0.13015627  0.85662697     0.14200
H436        H  0.83247379  0.07106279  0.91208292     0.14800
C437        C  0.80307243  0.10506587  0.14248284    -0.14800
C438        C  0.81999593  0.10371896  0.10774780    -0.30000
H439        H  0.78674113  0.13046339  0.15127992     0.14200
H440        H  0.83593248  0.07812140  0.09880193     0.14800
C441        C  0.81716432  0.86169339  0.10611403    -0.14800
C442        C  0.82186470  0.90015657  0.10281130    -0.30000
H443        H  0.81253280  0.84917100  0.13461671     0.14200
H444        H  0.82623578  0.91358969  0.07473294     0.14800
C445        C  0.22451006  0.10257789  0.12472577    -0.14800
C446        C  0.21010693  0.10291745  0.08914080    -0.30000
H447        H  0.23830255  0.12840854  0.13609523     0.14200
H448        H  0.19622710  0.07738197  0.07732004     0.14800
C449        C  0.10582998  0.19035216  0.10968459    -0.14800
C450        C  0.14328184  0.19948226  0.11031408    -0.30000
H451        H  0.09255752  0.18108020  0.08286816     0.14200
H452        H  0.15580425  0.20827028  0.13770223     0.14800
C453        C  0.90375677  0.18277542  0.10020827    -0.14800
C454        C  0.90006234  0.19280250  0.13724887    -0.30000
H455        H  0.93096169  0.17137283  0.08943782     0.14200
H456        H  0.87274340  0.20426874  0.14768620     0.14800
C457        C  0.92222686  0.09929089  0.21009732    -0.14800
C458        C  0.88679931  0.09958957  0.22574792    -0.30000
H459        H  0.93222503  0.07413468  0.19413295     0.14200
H460        H  0.87717047  0.12464229  0.24211822     0.14800
C461        C  0.13122500  0.08676052  0.19050709    -0.14800
C462        C  0.13344280  0.12280250  0.20301501    -0.30000
H463        H  0.10420251  0.07558422  0.17920305     0.14200
H464        H  0.16064794  0.13373949  0.21415582     0.14800
C465        C  0.20546002  0.89187992  0.10710938    -0.14800
C466        C  0.21530021  0.85470029  0.11128925    -0.30000
H467        H  0.19664209  0.90326153  0.07920413     0.14200
H468        H  0.22436671  0.84365968  0.13926854     0.14800
C469        C  0.10297741  0.79141548  0.88966741    -0.14800
C470        C  0.14106747  0.78663819  0.88548932    -0.30000
H471        H  0.09064812  0.79818107  0.91776538     0.14200
H472        H  0.15268403  0.77977905  0.85707461     0.14800
C473        C  0.91085434  0.89688654  0.19002724    -0.14800
C474        C  0.90936389  0.85849520  0.19440195    -0.30000
H475        H  0.93852123  0.91151249  0.18778192     0.14200
H476        H  0.88121177  0.84478908  0.19702705     0.14800
C477        C  0.12631954  0.85156801  0.21056001    -0.14800
C478        C  0.12443691  0.88660317  0.19437293    -0.30000
H479        H  0.15306255  0.84170051  0.22364813     0.14200
H480        H  0.09784662  0.89695471  0.18140789     0.14800
C481        C  0.92418926  0.78505290  0.11236109    -0.14800
C482        C  0.88689477  0.77528046  0.11453451    -0.30000
H483        H  0.93656931  0.79497692  0.08520695     0.14200
H484        H  0.87512208  0.76529290  0.14196589     0.14800
C485        C  0.12898662  0.78281088  0.09652840    -0.14800
C486        C  0.13130441  0.76880774  0.13266555    -0.30000
H487        H  0.10264667  0.79683436  0.08684490     0.14200
H488        H  0.15770236  0.75467647  0.14206400     0.14800
C489        C  0.89959608  0.18123838  0.89726014    -0.14800
C490        C  0.89870753  0.19792494  0.86246631    -0.30000
H491        H  0.92554237  0.16648915  0.90694686     0.14200
H492        H  0.87280436  0.21294328  0.85305025     0.14800
C493        C  0.10661236  0.19245009  0.89091816    -0.14800
C494        C  0.14279878  0.20593730  0.88989288    -0.30000
H495        H  0.09456514  0.18099087  0.91761888     0.14200
H496        H  0.15415270  0.21733544  0.86281976     0.14800
C497        C  0.88261946  0.10566948  0.77549779    -0.14800
C498        C  0.91719022  0.10500533  0.79265180    -0.30000
H499        H  0.87392282  0.13072956  0.75856255     0.14200
H500        H  0.92595271  0.07991716  0.80949868     0.14800
C501        C  0.22840979  0.87409802  0.86793454    -0.14800
C502        C  0.21563972  0.87615863  0.90427253    -0.30000
H503        H  0.24056204  0.84723686  0.85696648     0.14200
H504        H  0.20369172  0.90293351  0.91563224     0.14800
C505        C  0.20935325  0.08436602  0.88850767    -0.14800
C506        C  0.21855843  0.12192602  0.88402665    -0.30000
H507        H  0.20029116  0.07324106  0.91650310     0.14200
H508        H  0.22817947  0.13249597  0.85598154     0.14800
C509        C  0.12335437  0.07705733  0.80865422    -0.14800
C510        C  0.12707127  0.11529225  0.80392536    -0.30000
H511        H  0.09515416  0.06414493  0.81351139     0.14200
H512        H  0.15561327  0.12743979  0.79887595     0.14800
C513        C  0.14896774  0.87063094  0.78773123    -0.14800
C514        C  0.11306569  0.87228717  0.80249473    -0.30000
H515        H  0.15895973  0.84424034  0.77383079     0.14200
H516        H  0.10261664  0.89879360  0.81580585     0.14800
C517        C  0.95853267  0.64478267  0.80683826    -0.16900
C518        C  0.95020650  0.61517206  0.82401311     0.07200
C519        C  0.94211911  0.58394818  0.84998285     0.09000
C520        C  0.93716884  0.55716160  0.87236019    -0.17700
C521        C  0.88280294  0.54782284  0.93751072    -0.16900
C522        C  0.86248434  0.57577028  0.94378771     0.07200
C523        C  0.84095652  0.61051712  0.94912028     0.09000
C524        C  0.82732487  0.64258061  0.95356384    -0.17700
C525        C  0.96885355  0.33095161  0.79908190    -0.16900
C526        C  0.96446527  0.36222415  0.81441758     0.07200
C527        C  0.95869715  0.39481385  0.83898352     0.09000
C528        C  0.95225433  0.42085833  0.86162720    -0.17700
C529        C  0.83050100  0.31935961  0.94188724    -0.16900
C530        C  0.84638594  0.34964978  0.93372002     0.07200
C531        C  0.87041008  0.38233831  0.92604958     0.09000
C532        C  0.89126527  0.41017796  0.92099282    -0.17700
C533        C  0.96088382  0.64521315  0.18661370    -0.16900
C534        C  0.95318405  0.61427600  0.17289065     0.07200
C535        C  0.94554532  0.58110319  0.15079384     0.09000
C536        C  0.93982404  0.55374230  0.13020257    -0.17700
C537        C  0.81884369  0.64282277  0.05388401    -0.16900
C538        C  0.83353120  0.61173313  0.06033600     0.07200
C539        C  0.85774702  0.57926484  0.06668941     0.09000
C540        C  0.88007801  0.55278445  0.07158427    -0.17700
C541        C  0.94787572  0.41607613  0.12657860    -0.16900
C542        C  0.95278387  0.38944153  0.14953308     0.07200
C543        C  0.95785414  0.35765802  0.17626029     0.09000
C544        C  0.96243287  0.32764318  0.19465401    -0.17700
C545        C  0.89153386  0.41575618  0.06191546    -0.16900
C546        C  0.87130010  0.38803173  0.05575579     0.07200
C547        C  0.84855457  0.35459064  0.04995477     0.09000
C548        C  0.83391927  0.32325061  0.04537721    -0.17700
C549        C  0.90038970  0.46812249  0.98404104    -0.14800
C550        C  0.88793696  0.49122211  0.01298696    -0.30000
H551        H  0.91493624  0.44150474  0.99231039     0.14200
H552        H  0.87365817  0.51797997  0.00529156     0.14800
C553        C  0.07237453  0.54875355  0.12083603    -0.16900
C554        C  0.06755007  0.57469717  0.14453357     0.07200
C555        C  0.06345536  0.60643196  0.17140797     0.09000
C556        C  0.06022893  0.63652184  0.18988236    -0.17700
C557        C  0.19573300  0.64606838  0.04350271    -0.16900
C558        C  0.17871498  0.61658002  0.05059902     0.07200
C559        C  0.15326364  0.58560589  0.05745879     0.09000
C560        C  0.13207708  0.55840953  0.06204869    -0.17700
C561        C  0.06431108  0.32723806  0.17837546    -0.16900
C562        C  0.07262764  0.35578984  0.16015707     0.07200
C563        C  0.08098158  0.38578932  0.13374577     0.09000
C564        C  0.08678834  0.41206613  0.11153653    -0.17700
C565        C  0.21669743  0.33223660  0.05233093    -0.16900
C566        C  0.20091787  0.36352873  0.05509804     0.07200
C567        C  0.17515588  0.39575894  0.05654256     0.09000
C568        C  0.15118604  0.42140705  0.05840901    -0.17700
C569        C  0.99822649  0.49178052  0.12331427    -0.14800
C570        C  0.02562187  0.46930757  0.10707263    -0.30000
H571        H  0.00675835  0.51835755  0.13731020     0.14200
H572        H  0.01599906  0.44287586  0.09312710     0.14800
C573        C  0.07247032  0.55437325  0.88096878    -0.16900
C574        C  0.06732990  0.58189791  0.85950054     0.07200
C575        C  0.06337065  0.61556131  0.83562173     0.09000
C576        C  0.06002744  0.64677996  0.81954512    -0.17700
C577        C  0.20404065  0.64944065  0.94191675    -0.16900
C578        C  0.18624526  0.61949226  0.93825815     0.07200
C579        C  0.15941176  0.58843942  0.93583235     0.09000
C580        C  0.13666852  0.56181666  0.93429907    -0.17700
C581        C  0.08817220  0.41631090  0.88551692    -0.16900
C582        C  0.08352701  0.38928246  0.86359467     0.07200
C583        C  0.07672981  0.35783530  0.83780638     0.09000
C584        C  0.06940130  0.32856601  0.81986526    -0.17700
C585        C  0.14949021  0.42525655  0.94213702    -0.16900
C586        C  0.17334747  0.40013353  0.94622158     0.07200
C587        C  0.19881332  0.36846847  0.95040860     0.09000
C588        C  0.21388828  0.33728394  0.95463936    -0.17700
C589        C  0.16223060  0.49771240  0.98007167    -0.14800
C590        C  0.16229911  0.49487390  0.01933015    -0.30000
H591        H  0.18999473  0.50325150  0.96647264     0.14200
H592        H  0.19009684  0.49842989  0.03328049     0.14800
C593        C  0.02692867  0.47397124  0.88895412    -0.14800
C594        C  0.99921542  0.49730971  0.87449344    -0.30000
H595        H  0.01747286  0.44598504  0.89986250     0.14200
H596        H  0.00703919  0.52571511  0.86392544     0.14800
C597        C  0.58914535  0.92263138  0.88084670    -0.16900
C598        C  0.61775008  0.92472354  0.86095752     0.07200
C599        C  0.65145960  0.92752031  0.83801163     0.09000
C600        C  0.68233843  0.93204551  0.82246357    -0.17700
C601        C  0.58176120  0.86466276  0.94085773    -0.16900
C602        C  0.60947518  0.84308650  0.94501111     0.07200
C603        C  0.64338669  0.81918024  0.94825147     0.09000
C604        C  0.67458138  0.80288991  0.95121393    -0.17700
C605        C  0.36121163  0.94724995  0.80833486    -0.16900
C606        C  0.39255384  0.94223318  0.82265096     0.07200
C607        C  0.42537118  0.93606066  0.84614102     0.09000
C608        C  0.45163576  0.93018193  0.86828937    -0.17700
C609        C  0.35512853  0.80814739  0.94758388    -0.16900
C610        C  0.38493353  0.82486602  0.94029308     0.07200
C611        C  0.41677433  0.84965203  0.93296951     0.09000
C612        C  0.44395732  0.87104983  0.92778869    -0.17700
C613        C  0.67875918  0.93320898  0.18032936    -0.16900
C614        C  0.64593411  0.93017341  0.16852277     0.07200
C615        C  0.60926817  0.92741267  0.15010360     0.09000
C616        C  0.57959131  0.92312544  0.13200786    -0.17700
C617        C  0.67647805  0.80416422  0.05193827    -0.16900
C618        C  0.64669915  0.81992693  0.06007077     0.07200
C619        C  0.61492150  0.84376741  0.06822028     0.09000
C620        C  0.58732213  0.86400365  0.07397816    -0.17700
C621        C  0.34708242  0.92855636  0.17763455    -0.16900
C622        C  0.37813377  0.92096516  0.16392298     0.07200
C623        C  0.41212697  0.91361798  0.14271315     0.09000
C624        C  0.44095029  0.90837710  0.12390971    -0.17700
C625        C  0.35576718  0.79322372  0.04868249    -0.16900
C626        C  0.38775493  0.80703612  0.05305078     0.07200
C627        C  0.42232916  0.82905539  0.05814604     0.09000
C628        C  0.45005426  0.84987775  0.06390128    -0.17700
C629        C  0.52594361  0.86070760  0.01594574    -0.14800
C630        C  0.50187131  0.87343631  0.98820825    -0.30000
H631        H  0.55427645  0.85063612  0.00769475     0.14200
H632        H  0.47393295  0.88402353  0.99778929     0.14800
C633        C  0.67306821  0.03130463  0.81849490    -0.16900
C634        C  0.64342712  0.03542425  0.83646310     0.07200
C635        C  0.61221296  0.04015499  0.86251308     0.09000
C636        C  0.58528584  0.04457751  0.88431873    -0.17700
C637        C  0.58185020  0.10147678  0.94608773    -0.16900
C638        C  0.61020053  0.12207430  0.95062560     0.07200
C639        C  0.64448744  0.14536546  0.95418456     0.09000
C640        C  0.67579844  0.16138155  0.95723788    -0.17700
C641        C  0.44699861  0.04985178  0.87147751    -0.16900
C642        C  0.41886473  0.04847917  0.85077627     0.07200
C643        C  0.38414420  0.04752744  0.82895072     0.09000
C644        C  0.35216127  0.04489628  0.81512657    -0.17700
C645        C  0.44484595  0.10703780  0.93267556    -0.16900
C646        C  0.41880718  0.13014430  0.93679061     0.07200
C647        C  0.38740035  0.15617297  0.94188588     0.09000
C648        C  0.35745039  0.17356487  0.94692260    -0.17700
C649        C  0.51798366  0.00724208  0.85584041    -0.14800
C650        C  0.52402461  0.96817494  0.85524160    -0.30000
H651        H  0.51870712  0.02174170  0.82795100     0.14200
H652        H  0.52876552  0.95548341  0.82692800     0.14800
C653        C  0.67349895  0.03144896  0.20131738    -0.16900
C654        C  0.64280826  0.03926655  0.18718273     0.07200
C655        C  0.61134915  0.04822306  0.16311135     0.09000
C656        C  0.58567234  0.05491864  0.14071554    -0.17700
C657        C  0.58797342  0.11354284  0.07974864    -0.16900
C658        C  0.61570211  0.13411799  0.07388658     0.07200
C659        C  0.64919388  0.15660943  0.06619267     0.09000
C660        C  0.68021428  0.17088823  0.05859784    -0.17700
C661        C  0.35522554  0.03055897  0.18832119    -0.16900
C662        C  0.38691302  0.03535207  0.17418636     0.07200
C663        C  0.42083681  0.04119605  0.15163894     0.09000
C664        C  0.44888921  0.04700799  0.13139780    -0.17700
C665        C  0.35522226  0.16070188  0.04753360    -0.16900
C666        C  0.38590976  0.14505033  0.05416193     0.07200
C667        C  0.42023241  0.12353917  0.06179407     0.09000
C668        C  0.44910260  0.10495683  0.06907513    -0.17700
C669        C  0.52323712  0.99740779  0.13435351    -0.14800
C670        C  0.49978388  0.96955781  0.12046939    -0.30000
H671        H  0.54950832  0.98880169  0.14873503     0.14200
H672        H  0.47369616  0.97897206  0.10595615     0.14800
C673        C  0.50208929  0.09306392  0.99377936    -0.14800
C674        C  0.52574784  0.10663963  0.02149410    -0.30000
H675        H  0.47529618  0.07965752  0.00300178     0.14200
H676        H  0.55273994  0.11977770  0.01282477     0.14800
C677        C  0.97269354  0.80281535  0.65328580    -0.16900
C678        C  0.96749400  0.81965852  0.62291064     0.07200
C679        C  0.96103447  0.84489173  0.59087669     0.09000
C680        C  0.95466651  0.86707376  0.56432967    -0.17700
C681        C  0.89019595  0.92153483  0.56854429    -0.16900
C682        C  0.86958323  0.92373673  0.59687088     0.07200
C683        C  0.84628067  0.92625862  0.63074871     0.09000
C684        C  0.83106734  0.93042459  0.66207216    -0.17700
C685        C  0.88022329  0.91633304  0.43014714    -0.16900
C686        C  0.86116738  0.91669112  0.40105299     0.07200
C687        C  0.84267631  0.91713220  0.36476222     0.09000
C688        C  0.83177179  0.92044494  0.33188016    -0.17700
C689        C  0.95703136  0.79692419  0.33999733    -0.16900
C690        C  0.95103016  0.81300306  0.37045469     0.07200
C691        C  0.94604952  0.83805888  0.40255608     0.09000
C692        C  0.94213148  0.86077385  0.42888322    -0.17700
C693        C  0.94462259  0.09648107  0.57385966    -0.16900
C694        C  0.95154551  0.11980904  0.59888992     0.07200
C695        C  0.96128518  0.14704066  0.62782300     0.09000
C696        C  0.97032146  0.16563188  0.65589119    -0.17700
C697        C  0.88106973  0.04126866  0.56813541    -0.16900
C698        C  0.85617377  0.03717069  0.59214826     0.07200
C699        C  0.82914646  0.03221995  0.62222242     0.09000
C700        C  0.81342033  0.02796581  0.65295467    -0.17700
C701        C  0.95777314  0.09644813  0.43694858    -0.16900
C702        C  0.96335020  0.11916708  0.41039991     0.07200
C703        C  0.96900317  0.14534319  0.37854963     0.09000
C704        C  0.97417273  0.16357504  0.34872200    -0.17700
C705        C  0.89693663  0.03779018  0.43178172    -0.16900
C706        C  0.87423092  0.03160959  0.40629452     0.07200
C707        C  0.84672316  0.02420392  0.37737912     0.09000
C708        C  0.82853046  0.01846299  0.34842940    -0.17700
C709        C  0.86642047  0.00083500  0.49869909    -0.14800
C710        C  0.86472288  0.96146033  0.49884538    -0.30000
H711        H  0.83887403  0.01586764  0.49798369     0.14200
H712        H  0.83612079  0.94873198  0.49722854     0.14800
C713        C  0.14209596  0.05208246  0.56869574    -0.16900
C714        C  0.16145434  0.04978993  0.59758093     0.07200
C715        C  0.18228599  0.04743955  0.63262051     0.09000
C716        C  0.19575317  0.04345191  0.66451720    -0.17700
C717        C  0.07228836  0.17425363  0.65913622    -0.16900
C718        C  0.07548474  0.15766655  0.62808594     0.07200
C719        C  0.07859285  0.13315559  0.59455281     0.09000
C720        C  0.08229797  0.11136769  0.56693278    -0.17700
C721        C  0.08816681  0.11266936  0.42931938    -0.16900
C722        C  0.08463211  0.13633039  0.40337444     0.07200
C723        C  0.08009777  0.16338745  0.37225984     0.09000
C724        C  0.07486423  0.18121046  0.34232002    -0.17700
C725        C  0.19458166  0.03447513  0.33310073    -0.16900
C726        C  0.18205863  0.03945844  0.36516991     0.07200
C727        C  0.16226658  0.04448740  0.40040727     0.09000
C728        C  0.14348681  0.04937095  0.42931499    -0.17700
C729        C  0.03069956  0.10584712  0.49327881    -0.14800
C730        C  0.00444326  0.08806085  0.51587870    -0.30000
H731        H  0.02129338  0.12071608  0.46745717     0.14200
H732        H  0.01501579  0.07329671  0.54151688     0.14800
C733        C  0.08985165  0.87002205  0.57278423    -0.16900
C734        C  0.08604243  0.84787897  0.60012307     0.07200
C735        C  0.08062543  0.82221836  0.63245667     0.09000
C736        C  0.07440131  0.80464296  0.66248950    -0.17700
C737        C  0.14750385  0.93140693  0.56629036    -0.16900
C738        C  0.16965863  0.93706271  0.59249506     0.07200
C739        C  0.19371743  0.94237495  0.62492343     0.09000
C740        C  0.20860032  0.94632525  0.65609934    -0.17700
C741        C  0.07850056  0.86560411  0.43478709    -0.16900
C742        C  0.07174985  0.84249931  0.40892759     0.07200
C743        C  0.06466646  0.81605605  0.37760906     0.09000
C744        C  0.05897718  0.79783983  0.34791298    -0.17700
C745        C  0.19453136  0.93443828  0.33223894    -0.16900
C746        C  0.17990084  0.93076404  0.36389482     0.07200
C747        C  0.15784342  0.92787592  0.39853791     0.09000
C748        C  0.13841630  0.92517400  0.42763436    -0.17700
C749        C  0.16274216  0.96966354  0.49443815    -0.14800
C750        C  0.16310140  0.00904693  0.49921054    -0.30000
H751        H  0.19095760  0.95618070  0.49167273     0.14200
H752        H  0.19153509  0.02228408  0.49913881     0.14800
C753        C  0.00283855  0.87904937  0.48584233    -0.14800
C754        C  0.03127301  0.86951906  0.51058519    -0.30000
H755        H  0.01118764  0.89127428  0.45814198     0.14200
H756        H  0.02360402  0.85791160  0.53857208     0.14800
loop_ 
_geom_bond_atom_site_label_1 
_geom_bond_atom_site_label_2 
_geom_bond_distance 
_geom_bond_site_symmetry_2 
_ccdc_geom_bond_type 
C1            C2   1.424       .  A
C1            C6   1.431       .  A
C1          C741   1.477       .  S
C2            C3   1.414       .  A
C2          C754   1.508       .  S
C3            C4   1.423       .  A
C3          C733   1.474       .  S
C4            C5   1.425       .  A
C4          C737   1.451       .  S
C5            C6   1.429       .  A
C5          C749   1.511       .  S
C6          C748   1.459       .  S
C7            C8   1.428       .  A
C7           C12   1.429       .  A
C7          C713   1.452       .  S
C8            C9   1.424       .  A
C8          C750   1.510       .  S
C9           C10   1.419       .  A
C9          C728   1.446       .  S
C10          C11   1.406       .  A
C10         C721   1.469       .  S
C11          C12   1.420       .  A
C11         C729   1.501       .  S
C12         C720   1.477       .  S
C13          C14   1.408       .  A
C13          C18   1.414       .  A
C13         C693   1.454       .  S
C14          C15   1.422       .  A
C14         C730   1.505   1_655  S
C15          C16   1.431       .  A
C15         C701   1.469       .  S
C16          C17   1.422       .  A
C16         C705   1.444       .  S
C17          C18   1.413       .  A
C17         C709   1.509       .  S
C18         C697   1.446       .  S
C19          C20   1.412       .  A
C19          C24   1.418       .  A
C19         C685   1.451       .  S
C20          C21   1.404       .  A
C20         C692   1.458       .  S
C21          C22   1.420       .  A
C21         C753   1.505   1_655  S
C22          C23   1.431       .  A
C22         C680   1.459       .  S
C23          C24   1.423       .  A
C23         C681   1.460       .  S
C24         C710   1.497       .  S
C25          C26   1.425       .  A
C25          C30   1.417       .  A
C25         C664   1.458       .  S
C26          C27   1.426       .  A
C26         C668   1.461       .  S
C27          C28   1.415       .  A
C27         C674   1.513       .  S
C28          C29   1.416       .  A
C28         C657   1.457       .  S
C29          C30   1.410       .  A
C29         C656   1.445       .  S
C30         C669   1.513   1_545  S
C31          C32   1.419       .  A
C31          C36   1.421       .  A
C31         C641   1.461       .  S
C32          C33   1.412       .  A
C32         C645   1.459       .  S
C33          C34   1.423       .  A
C33         C673   1.508       .  S
C34          C35   1.431       .  A
C34         C637   1.475       .  S
C35          C36   1.426       .  A
C35         C636   1.452       .  S
C36         C649   1.507       .  S
C37          C38   1.420       .  A
C37          C42   1.418       .  A
C37         C616   1.461       .  S
C38          C39   1.417       .  A
C38         C670   1.510       .  S
C39          C40   1.418       .  A
C39         C624   1.445       .  S
C40          C41   1.417       .  A
C40         C628   1.466       .  S
C41          C42   1.411       .  A
C41         C629   1.510       .  S
C42         C620   1.440       .  S
C43          C44   1.416       .  A
C43          C48   1.413       .  A
C43         C612   1.457       .  S
C44          C45   1.415       .  A
C44         C608   1.455       .  S
C45          C46   1.426       .  A
C45         C650   1.506       .  S
C46          C47   1.432       .  A
C46         C597   1.450       .  S
C47          C48   1.426       .  A
C47         C601   1.474       .  S
C48         C630   1.512       .  S
C49          C50   1.414       .  A
C49          C54   1.418       .  A
C49         C581   1.465       .  S
C50          C51   1.429       .  A
C50         C593   1.516       .  S
C51          C52   1.433       .  A
C51         C573   1.464       .  S
C52          C53   1.422       .  A
C52         C580   1.460       .  S
C53          C54   1.416       .  A
C53         C589   1.506       .  S
C54         C585   1.449       .  S
C55          C56   1.427       .  A
C55          C60   1.431       .  A
C55         C560   1.442       .  S
C56          C57   1.414       .  A
C56         C590   1.505       .  S
C57          C58   1.416       .  A
C57         C568   1.464       .  S
C58          C59   1.413       .  A
C58         C564   1.445       .  S
C59          C60   1.422       .  A
C59         C570   1.511       .  S
C60         C553   1.479       .  S
C61          C62   1.418       .  A
C61          C66   1.432       .  A
C61         C541   1.477       .  S
C62          C63   1.409       .  A
C62         C569   1.508       .  S
C63          C64   1.412       .  A
C63         C536   1.442       .  S
C64          C65   1.410       .  A
C64         C540   1.454       .  S
C65          C66   1.427       .  A
C65         C550   1.520       .  S
C66         C545   1.445       .  S
C67          C68   1.419       .  A
C67          C72   1.422       .  A
C67         C528   1.459       .  S
C68          C69   1.409       .  A
C68         C594   1.510       .  S
C69          C70   1.427       .  A
C69         C520   1.463       .  S
C70          C71   1.431       .  A
C70         C521   1.455       .  S
C71          C72   1.415       .  A
C71         C549   1.519       .  S
C72         C532   1.461       .  S
O73          C81   1.263       .  A
O73         Co93   1.962       .  S
O74          C82   1.264       .  A
O74         Co94   1.973   1_545  S
O75          C83   1.268       .  A
O75         Co95   2.003       .  S
O76          C84   1.278       .  A
O76         Co96   2.024       .  S
O77          C83   1.265       .  A
O77         Co94   1.957       .  S
O78          C84   1.260       .  A
O78         Co93   1.956   1_545  S
O79          C82   1.271       .  A
O79         Co96   2.006       .  S
O80          C81   1.272       .  A
O80         Co95   2.028       .  S
C81         C513   1.471       .  S
C82         C505   1.473       .  S
C83         C501   1.454       .  S
C84         C509   1.470       .  S
O85          C98   1.268       .  A
O85         Co93   2.018   1_545  S
O86          C99   1.268       .  A
O86         Co94   2.014       .  S
O87         C100   1.268       .  A
O87         Co95   1.980       .  S
O88         C101   1.273       .  A
O88         Co96   1.996       .  S
O89         C101   1.269       .  A
O89         Co94   2.017   1_545  S
O90         C100   1.268       .  A
O90         Co93   2.014       .  S
O91          C98   1.268       .  A
O91         Co96   1.982       .  S
O92          C99   1.269       .  A
O92         Co95   1.984       .  S
Co93         O97   2.097       .  S
Co94         O97   2.095       .  S
Co95         O97   2.108       .  S
Co96         O97   2.101   1_545  S
C98         C716   1.438       .  S
C99         C605   1.437       .  S
C100        C740   1.434       .  S
C101        C644   1.445       .  S
O102        C110   1.264       .  A
O102       Co122   1.974       .  S
O103        C111   1.266       .  A
O103       Co123   1.974   1_655  S
O104        C112   1.284       .  A
O104       Co124   2.040       .  S
O105        C113   1.280       .  A
O105       Co125   2.037       .  S
O106        C112   1.265       .  A
O106       Co123   1.960       .  S
O107        C113   1.264       .  A
O107       Co122   1.953   1_655  S
O108        C111   1.264       .  A
O108       Co125   2.001       .  S
O109        C110   1.264       .  A
O109       Co124   1.992       .  S
C110        C510   1.461       .  S
C111        C490   1.466       .  S
C112        C493   1.480       .  S
C113        C498   1.469       .  S
O114        C127   1.265       .  A
O114       Co122   2.005   1_655  S
O115        C128   1.265       .  A
O115       Co123   2.008       .  S
O116        C129   1.284       .  A
O116       Co124   2.024       .  S
O117        C130   1.277       .  A
O117       Co125   2.002       .  S
O118        C130   1.270       .  A
O118       Co123   2.011   1_655  S
O119        C129   1.270       .  A
O119       Co122   2.017       .  S
O120        C127   1.269       .  A
O120       Co125   1.987       .  S
O121        C128   1.275       .  A
O121       Co124   2.003       .  S
Co122       O126   2.096       .  S
Co123       O126   2.095       .  S
Co124       O126   2.104       .  S
Co125       O126   2.110   1_655  S
C127        C696   1.436       .  S
C128        C584   1.447       .  S
C129        C717   1.462       .  S
C130        C525   1.445       .  S
O131        C139   1.270       .  A
O131       Co151   1.964       .  S
O132        C140   1.262       .  A
O132       Co152   1.958   1_655  S
O133        C141   1.273       .  A
O133       Co153   2.027       .  S
O134        C142   1.263       .  A
O134       Co154   1.990       .  S
O135        C141   1.267       .  A
O135       Co152   1.970       .  S
O136        C142   1.272       .  A
O136       Co151   1.996   1_655  S
O137        C140   1.280       .  A
O137       Co154   2.036       .  S
O138        C139   1.270       .  A
O138       Co153   2.000       .  S
C139        C477   1.455       .  S
C140        C481   1.476       .  S
C141        C486   1.475       .  S
C142        C474   1.469       .  S
O143        C156   1.269       .  A
O143       Co151   2.012   1_655  S
O144        C157   1.266       .  A
O144       Co152   2.010       .  S
O145        C158   1.284       .  A
O145       Co153   2.023       .  S
O146        C159   1.264       .  A
O146       Co154   1.966       .  S
O147        C159   1.268       .  A
O147       Co152   2.014   1_655  S
O148        C158   1.268       .  A
O148       Co151   2.011       .  S
O149        C156   1.273       .  A
O149       Co154   1.993       .  S
O150        C157   1.285       .  A
O150       Co153   2.030       .  S
Co151       O155   2.102       .  S
Co152       O155   2.100       .  S
Co153       O155   2.111       .  S
Co154       O155   2.100   1_655  S
C156        C689   1.440       .  S
C157        C556   1.464       .  S
C158        C744   1.460       .  S
C159        C533   1.426       .  S
O160        C168   1.270       .  A
O160       Co180   2.021       .  S
O161        C169   1.268       .  A
O161       Co181   2.008       .  S
O162        C170   1.265       .  A
O162       Co182   1.975       .  S
O163        C171   1.270       .  A
O163       Co183   1.989       .  S
O164        C170   1.265       .  A
O164       Co181   2.002   1_554  S
O165        C171   1.266       .  A
O165       Co180   2.009   1_556  S
O166        C169   1.276       .  A
O166       Co183   1.999       .  S
O167        C168   1.276       .  A
O167       Co182   2.005       .  S
C168        C625   1.453       .  S
C169        C577   1.441       .  S
C170        C557   1.426       .  S
C171        C609   1.439       .  S
O172        C185   1.259       .  A
O172       Co180   1.947   1_556  S
O173        C186   1.266       .  A
O173       Co181   1.960   1_554  S
O174        C187   1.263       .  A
O174       Co182   1.994       .  S
O175        C188   1.266       .  A
O175       Co183   2.003       .  S
O176        C188   1.267       .  A
O176       Co181   1.977       .  S
O177        C187   1.260       .  A
O177       Co180   1.956       .  S
O178        C185   1.278       .  A
O178       Co183   2.020       .  S
O179        C186   1.282       .  A
O179       Co182   2.046       .  S
Co180       O184   2.089   1_554  S
Co181       O184   2.098       .  S
Co182       O184   2.106   1_554  S
Co183       O184   2.103       .  S
C185        C502   1.460       .  S
C186        C485   1.478       .  S
C187        C466   1.451       .  S
C188        C470   1.467       .  S
O189        C197   1.269       .  A
O189       Co209   2.007       .  S
O190        C198   1.268       .  A
O190       Co210   2.009   1_655  S
O191        C199   1.266       .  A
O191       Co211   1.976       .  S
O192        C200   1.278       .  A
O192       Co212   2.013       .  S
O193        C199   1.264       .  A
O193       Co210   2.003       .  S
O194        C200   1.266       .  A
O194       Co209   2.012   1_655  S
O195        C198   1.287       .  A
O195       Co212   2.031       .  S
O196        C197   1.283       .  A
O196       Co211   2.016       .  S
C197        C724   1.450       .  S
C198        C544   1.462       .  S
C199        C561   1.429       .  S
C200        C704   1.457       .  S
O201        C214   1.267       .  A
O201       Co209   1.956   1_655  S
O202        C215   1.263       .  A
O202       Co210   1.954       .  S
O203        C216   1.255       .  A
O203       Co211   1.967       .  S
O204        C217   1.264       .  A
O204       Co212   2.000       .  S
O205        C217   1.265       .  A
O205       Co210   1.969   1_655  S
O206        C216   1.269       .  A
O206       Co209   1.982       .  S
O207        C214   1.283       .  A
O207       Co212   2.039       .  S
O208        C215   1.289       .  A
O208       Co211   2.069       .  S
Co209       O213   2.092       .  S
Co210       O213   2.098       .  S
Co211       O213   2.106       .  S
Co212       O213   2.110   1_655  S
C214        C457   1.474       .  S
C215        C449   1.486       .  S
C216        C462   1.453       .  S
C217        C454   1.465       .  S
O218        C226   1.270       .  A
O218       Co238   2.020       .  S
O219        C227   1.271       .  A
O219       Co239   2.014   1_545  S
O220        C228   1.267       .  A
O220       Co240   1.979       .  S
O221        C229   1.262       .  A
O221       Co241   1.970       .  S
O222        C228   1.266       .  A
O222       Co239   2.008       .  S
O223        C229   1.266       .  A
O223       Co238   2.018   1_545  S
O224        C227   1.275       .  A
O224       Co241   1.996       .  S
O225        C226   1.273       .  A
O225       Co240   1.992       .  S
C226        C745   1.444       .  S
C227        C661   1.443       .  S
C228        C621   1.430       .  S
C229        C725   1.431       .  S
O230        C243   1.249       .  A
O230       Co238   1.922   1_545  S
O231        C244   1.262       .  A
O231       Co239   1.952       .  S
O232        C245   1.269       .  A
O232       Co240   2.010       .  S
O233        C246   1.259       .  A
O233       Co241   1.982       .  S
O234        C246   1.265       .  A
O234       Co239   1.976   1_545  S
O235        C245   1.252       .  A
O235       Co238   1.951       .  S
O236        C243   1.284       .  A
O236       Co241   2.050       .  S
O237        C244   1.278       .  A
O237       Co240   2.014       .  S
Co238       O242   2.087       .  S
Co239       O242   2.095       .  S
Co240       O242   2.097       .  S
Co241       O242   2.098   1_545  S
C243        C461   1.457       .  S
C244        C465   1.460       .  S
C245        C478   1.462       .  S
C246        C445   1.455       .  S
O247        C255   1.257       .  A
O247       Co267   1.946   1_554  S
O248        C256   1.275       .  A
O248       Co268   1.987   1_556  S
O249        C257   1.265       .  A
O249       Co269   1.996       .  S
O250        C258   1.269       .  A
O250       Co270   2.016       .  S
O251        C257   1.276       .  A
O251       Co268   2.005       .  S
O252        C258   1.260       .  A
O252       Co267   1.960       .  S
O253        C256   1.272       .  A
O253       Co270   2.009       .  S
O254        C255   1.279       .  A
O254       Co269   2.024       .  S
C255        C446   1.464       .  S
C256        C494   1.471       .  S
C257        C450   1.480       .  S
C258        C506   1.464       .  S
O259        C272   1.269       .  A
O259       Co267   2.016       .  S
O260        C273   1.269       .  A
O260       Co268   2.010       .  S
O261        C274   1.272       .  A
O261       Co269   1.995       .  S
O262        C275   1.269       .  A
O262       Co270   1.983       .  S
O263        C275   1.268       .  A
O263       Co268   2.009   1_556  S
O264        C274   1.268       .  A
O264       Co267   2.024   1_554  S
O265        C272   1.272       .  A
O265       Co270   1.992       .  S
O266        C273   1.278       .  A
O266       Co269   2.005       .  S
Co267       O271   2.095       .  S
Co268       O271   2.105   1_554  S
Co269       O271   2.101   1_554  S
Co270       O271   2.104       .  S
C272        C648   1.442       .  S
C273        C565   1.445       .  S
C274        C665   1.450       .  S
C275        C588   1.432       .  S
O276        C284   1.265       .  A
O276       Co296   1.999   1_545  S
O277        C285   1.269       .  A
O277       Co297   2.022       .  S
O278        C286   1.266       .  A
O278       Co298   1.974       .  S
O279        C287   1.265       .  A
O279       Co299   1.974       .  S
O280        C286   1.268       .  A
O280       Co297   2.011   1_545  S
O281        C287   1.270       .  A
O281       Co296   2.025       .  S
O282        C285   1.271       .  A
O282       Co299   1.997       .  S
O283        C284   1.267       .  A
O283       Co298   1.981       .  S
C284        C708   1.427       .  S
C285        C613   1.450       .  S
C286        C653   1.428       .  S
C287        C688   1.435       .  S
O288        C301   1.258       .  A
O288       Co296   1.954       .  S
O289        C302   1.263       .  A
O289       Co297   1.951   1_545  S
O290        C303   1.270       .  A
O290       Co298   2.019       .  S
O291        C304   1.271       .  A
O291       Co299   2.005       .  S
O292        C304   1.263       .  A
O292       Co297   1.974       .  S
O293        C303   1.266       .  A
O293       Co296   1.968   1_545  S
O294        C301   1.279       .  A
O294       Co299   2.037       .  S
O295        C302   1.269       .  A
O295       Co298   2.016       .  S
Co296       O300   2.095       .  S
Co297       O300   2.091       .  S
Co298       O300   2.116   1_545  S
Co299       O300   2.105       .  S
C301        C473   1.479       .  S
C302        C437   1.460       .  S
C303        C458   1.470       .  S
C304        C442   1.477       .  S
O305        C313   1.269       .  A
O305       Co325   2.016       .  S
O306        C314   1.268       .  A
O306       Co326   2.014       .  S
O307        C315   1.267       .  A
O307       Co327   1.985       .  S
O308        C316   1.279       .  A
O308       Co328   2.020       .  S
O309        C315   1.266       .  A
O309       Co326   2.009   1_554  S
O310        C316   1.267       .  A
O310       Co325   2.016   1_556  S
O311        C314   1.275       .  A
O311       Co328   2.000       .  S
O312        C313   1.271       .  A
O312       Co327   1.990       .  S
C313        C660   1.442       .  S
C314        C529   1.447       .  S
C315        C548   1.435       .  S
C316        C640   1.462       .  S
O317        C330   1.257       .  A
O317       Co325   1.947   1_556  S
O318        C331   1.256       .  A
O318       Co326   1.946   1_554  S
O319        C332   1.271       .  A
O319       Co327   2.017       .  S
O320        C333   1.277       .  A
O320       Co328   2.040       .  S
O321        C333   1.255       .  A
O321       Co326   1.945       .  S
O322        C332   1.256       .  A
O322       Co325   1.948       .  S
O323        C330   1.272       .  A
O323       Co328   2.005       .  S
O324        C331   1.277       .  A
O324       Co327   2.036       .  S
Co325       O329   2.090       .  S
Co326       O329   2.093   1_556  S
Co327       O329   2.111       .  S
Co328       O329   2.112   1_556  S
C330        C434   1.456       .  S
C331        C453   1.468       .  S
C332        C438   1.459       .  S
C333        C489   1.468       .  S
O334        C342   1.267       .  A
O334       Co354   2.012       .  S
O335        C343   1.268       .  A
O335       Co355   2.010   1_655  S
O336        C344   1.276       .  A
O336       Co356   2.009       .  S
O337        C345   1.275       .  A
O337       Co357   2.000       .  S
O338        C344   1.267       .  A
O338       Co355   2.011       .  S
O339        C345   1.268       .  A
O339       Co354   2.012   1_655  S
O340        C343   1.277       .  A
O340       Co357   2.004       .  S
O341        C342   1.280       .  A
O341       Co356   2.018       .  S
C342        C736   1.457       .  S
C343        C517   1.447       .  S
C344        C576   1.452       .  S
C345        C677   1.446       .  S
O346        C359   1.263       .  A
O346       Co354   1.956   1_655  S
O347        C360   1.262       .  A
O347       Co355   1.958       .  S
O348        C361   1.273       .  A
O348       Co356   2.019       .  S
O349        C362   1.269       .  A
O349       Co357   2.015       .  S
O350        C362   1.265       .  A
O350       Co355   1.964   1_655  S
O351        C361   1.263       .  A
O351       Co354   1.968       .  S
O352        C359   1.272       .  A
O352       Co357   2.011       .  S
O353        C360   1.279       .  A
O353       Co356   2.029       .  S
Co354       O358   2.098       .  S
Co355       O358   2.099       .  S
Co356       O358   2.108       .  S
Co357       O358   2.113   1_655  S
C359        C430   1.456       .  S
C360        C469   1.474       .  S
C361        C514   1.475       .  S
C362        C425   1.466       .  S
O363        C371   1.265       .  A
O363       Co383   1.962   1_545  S
O364        C372   1.260       .  A
O364       Co384   1.964       .  S
O365        C373   1.270       .  A
O365       Co385   2.008       .  S
O366        C374   1.273       .  A
O366       Co386   1.999       .  S
O367        C373   1.264       .  A
O367       Co384   1.949   1_545  S
O368        C374   1.265       .  A
O368       Co383   1.968       .  S
O369        C372   1.275       .  A
O369       Co386   2.027       .  S
O370        C371   1.270       .  A
O370       Co385   2.021       .  S
C371        C497   1.468       .  S
C372        C422   1.480       .  S
C373        C433   1.452       .  S
C374        C429   1.469       .  S
O375        C388   1.265       .  A
O375       Co383   2.010       .  S
O376        C389   1.264       .  A
O376       Co384   2.006   1_545  S
O377        C390   1.268       .  A
O377       Co385   1.975       .  S
O378        C391   1.270       .  A
O378       Co386   1.981       .  S
O379        C391   1.270       .  A
O379       Co384   2.017       .  S
O380        C390   1.270       .  A
O380       Co383   2.010   1_545  S
O381        C388   1.273       .  A
O381       Co386   2.002       .  S
O382        C389   1.269       .  A
O382       Co385   1.990       .  S
Co383       O387   2.091       .  S
Co384       O387   2.090       .  S
Co385       O387   2.112   1_545  S
Co386       O387   2.101       .  S
C388        C684   1.444       .  S
C389        C633   1.436       .  S
C390        C700   1.427       .  S
C391        C600   1.435       .  S
O392        C400   1.269       .  A
O392       Co412   1.971   1_554  S
O393        C401   1.262       .  A
O393       Co413   1.951   1_556  S
O394        C402   1.265       .  A
O394       Co414   2.003       .  S
O395        C403   1.267       .  A
O395       Co415   1.999       .  S
O396        C402   1.266       .  A
O396       Co413   1.980       .  S
O397        C403   1.269       .  A
O397       Co412   1.987       .  S
O398        C401   1.280       .  A
O398       Co415   2.036       .  S
O399        C400   1.274       .  A
O399       Co414   2.016       .  S
C400        C441   1.465       .  S
C401        C426   1.469       .  S
C402        C482   1.468       .  S
C403        C421   1.471       .  S
O404        C417   1.270       .  A
O404       Co412   2.020       .  S
O405        C418   1.269       .  A
O405       Co413   2.013       .  S
O406        C419   1.264       .  A
O406       Co414   1.968       .  S
O407        C420   1.272       .  A
O407       Co415   1.996       .  S
O408        C420   1.268       .  A
O408       Co413   2.017   1_556  S
O409        C419   1.267       .  A
O409       Co412   2.007   1_554  S
O410        C417   1.281       .  A
O410       Co415   2.018       .  S
O411        C418   1.271       .  A
O411       Co414   1.987       .  S
Co412       O416   2.108   1_556  S
Co413       O416   2.097       .  S
Co414       O416   2.100       .  S
Co415       O416   2.104   1_556  S
C417        C604   1.461       .  S
C418        C537   1.437       .  S
C419        C617   1.423       .  S
C420        C524   1.446       .  S
C421        C422   1.339       .  D
C421        H423   1.088       .  S
C422        H424   1.087       .  S
C425        C426   1.338       .  D
C425        H427   1.087       .  S
C426        H428   1.087       .  S
C429        C430   1.342       .  D
C429        H431   1.087       .  S
C430        H432   1.088       .  S
C433        C434   1.335       .  D
C433        H435   1.087       .  S
C434        H436   1.086       .  S
C437        C438   1.337       .  D
C437        H439   1.087       .  S
C438        H440   1.087       .  S
C441        C442   1.342       .  D
C441        H443   1.088       .  S
C442        H444   1.086       .  S
C445        C446   1.331       .  D
C445        H447   1.087       .  S
C446        H448   1.086       .  S
C449        C450   1.336       .  D
C449        H451   1.087       .  S
C450        H452   1.088       .  S
C453        C454   1.335       .  D
C453        H455   1.087       .  S
C454        H456   1.087       .  S
C457        C458   1.340       .  D
C457        H459   1.086       .  S
C458        H460   1.087       .  S
C461        C462   1.321       .  D
C461        H463   1.088       .  S
C462        H464   1.088       .  S
C465        C466   1.335       .  D
C465        H467   1.087       .  S
C466        H468   1.087       .  S
C469        C470   1.338       .  D
C469        H471   1.087       .  S
C470        H472   1.088       .  S
C473        C474   1.335       .  D
C473        H475   1.087       .  S
C474        H476   1.088       .  S
C477        C478   1.333       .  D
C477        H479   1.087       .  S
C478        H480   1.086       .  S
C481        C482   1.338       .  D
C481        H483   1.086       .  S
C482        H484   1.087       .  S
C485        C486   1.342       .  D
C485        H487   1.087       .  S
C486        H488   1.087       .  S
C489        C490   1.334       .  D
C489        H491   1.087       .  S
C490        H492   1.087       .  S
C493        C494   1.339       .  D
C493        H495   1.087       .  S
C494        H496   1.088       .  S
C497        C498   1.339       .  D
C497        H499   1.087       .  S
C498        H500   1.086       .  S
C501        C502   1.334       .  D
C501        H503   1.087       .  S
C502        H504   1.086       .  S
C505        C506   1.344       .  D
C505        H507   1.087       .  S
C506        H508   1.087       .  S
C509        C510   1.336       .  D
C509        H511   1.087       .  S
C510        H512   1.088       .  S
C513        C514   1.345       .  D
C513        H515   1.087       .  S
C514        H516   1.087       .  S
C517        C518   1.216       .  T
C518        C519   1.429       .  S
C519        C520   1.216       .  T
C521        C522   1.214       .  T
C522        C523   1.424       .  S
C523        C524   1.213       .  T
C525        C526   1.213       .  T
C526        C527   1.426       .  S
C527        C528   1.214       .  T
C529        C530   1.214       .  T
C530        C531   1.427       .  S
C531        C532   1.215       .  T
C533        C534   1.201       .  T
C534        C535   1.405       .  S
C535        C536   1.202       .  T
C537        C538   1.208       .  T
C538        C539   1.417       .  S
C539        C540   1.209       .  T
C541        C542   1.226       .  T
C542        C543   1.444       .  S
C543        C544   1.225       .  T
C545        C546   1.207       .  T
C546        C547   1.414       .  S
C547        C548   1.206       .  T
C549        C550   1.352   1_556  D
C549        H551   1.086       .  S
C550        H552   1.081       .  S
C553        C554   1.227       .  T
C554        C555   1.446       .  S
C555        C556   1.226       .  T
C557        C558   1.201       .  T
C558        C559   1.406       .  S
C559        C560   1.202       .  T
C561        C562   1.203       .  T
C562        C563   1.409       .  S
C563        C564   1.204       .  T
C565        C566   1.214       .  T
C566        C567   1.427       .  S
C567        C568   1.215       .  T
C569        C570   1.348   1_655  D
C569        H571   1.081   1_655  S
C570        H572   1.087       .  S
C573        C574   1.218       .  T
C574        C575   1.431       .  S
C575        C576   1.217       .  T
C577        C578   1.211       .  T
C578        C579   1.423       .  S
C579        C580   1.213       .  T
C581        C582   1.215       .  T
C582        C583   1.428       .  S
C583        C584   1.215       .  T
C585        C586   1.206       .  T
C586        C587   1.412       .  S
C587        C588   1.205       .  T
C589        C590   1.362   1_556  D
C589        H591   1.087       .  S
C590        H592   1.086       .  S
C593        C594   1.350   1_455  D
C593        H595   1.087       .  S
C594        H596   1.080   1_655  S
C597        C598   1.207       .  T
C598        C599   1.414       .  S
C599        C600   1.206       .  T
C601        C602   1.224       .  T
C602        C603   1.440       .  S
C603        C604   1.223       .  T
C605        C606   1.208       .  T
C606        C607   1.416       .  S
C607        C608   1.209       .  T
C609        C610   1.209       .  T
C610        C611   1.419       .  S
C611        C612   1.210       .  T
C613        C614   1.215       .  T
C614        C615   1.427       .  S
C615        C616   1.216       .  T
C617        C618   1.199       .  T
C618        C619   1.403       .  S
C619        C620   1.200       .  T
C621        C622   1.204       .  T
C622        C623   1.409       .  S
C623        C624   1.204       .  T
C625        C626   1.217       .  T
C626        C627   1.431       .  S
C627        C628   1.218       .  T
C629        C630   1.347   1_554  D
C629        H631   1.079       .  S
C630        H632   1.086       .  S
C633        C634   1.207       .  T
C634        C635   1.415       .  S
C635        C636   1.208       .  T
C637        C638   1.224       .  T
C638        C639   1.441       .  S
C639        C640   1.223       .  T
C641        C642   1.213       .  T
C642        C643   1.424       .  S
C643        C644   1.213       .  T
C645        C646   1.212       .  T
C646        C647   1.422       .  S
C647        C648   1.211       .  T
C649        C650   1.365   1_545  D
C649        H651   1.086       .  S
C650        H652   1.087       .  S
C653        C654   1.203       .  T
C654        C655   1.408       .  S
C655        C656   1.204       .  T
C657        C658   1.212       .  T
C658        C659   1.421       .  S
C659        C660   1.211       .  T
C661        C662   1.212       .  T
C662        C663   1.423       .  S
C663        C664   1.213       .  T
C665        C666   1.215       .  T
C666        C667   1.427       .  S
C667        C668   1.215       .  T
C669        C670   1.350       .  D
C669        H671   1.080       .  S
C670        H672   1.085       .  S
C673        C674   1.350   1_556  D
C673        H675   1.085   1_556  S
C674        H676   1.081       .  S
C677        C678   1.214       .  T
C678        C679   1.426       .  S
C679        C680   1.215       .  T
C681        C682   1.214       .  T
C682        C683   1.424       .  S
C683        C684   1.213       .  T
C685        C686   1.206       .  T
C686        C687   1.412       .  S
C687        C688   1.206       .  T
C689        C690   1.210       .  T
C690        C691   1.420       .  S
C691        C692   1.211       .  T
C693        C694   1.209       .  T
C694        C695   1.417       .  S
C695        C696   1.208       .  T
C697        C698   1.204       .  T
C698        C699   1.408       .  S
C699        C700   1.202       .  T
C701        C702   1.221       .  T
C702        C703   1.437       .  S
C703        C704   1.220       .  T
C705        C706   1.204       .  T
C706        C707   1.409       .  S
C707        C708   1.203       .  T
C709        C710   1.361   1_545  D
C709        H711   1.087       .  S
C710        H712   1.086       .  S
C713        C714   1.209       .  T
C714        C715   1.416       .  S
C715        C716   1.208       .  T
C717        C718   1.224       .  T
C718        C719   1.442       .  S
C719        C720   1.224       .  T
C721        C722   1.219       .  T
C722        C723   1.433       .  S
C723        C724   1.218       .  T
C725        C726   1.203       .  T
C726        C727   1.408       .  S
C727        C728   1.204       .  T
C729        C730   1.345       .  D
C729        H731   1.081       .  S
C730        H732   1.087       .  S
C733        C734   1.222       .  T
C734        C735   1.437       .  S
C735        C736   1.221       .  T
C737        C738   1.207       .  T
C738        C739   1.413       .  S
C739        C740   1.206       .  T
C741        C742   1.224       .  T
C742        C743   1.441       .  S
C743        C744   1.223       .  T
C745        C746   1.212       .  T
C746        C747   1.423       .  S
C747        C748   1.213       .  T
C749        C750   1.370   1_565  D
C749        H751   1.087       .  S
C750        H752   1.087       .  S
C753        C754   1.348       .  D
C753        H755   1.085       .  S
C754        H756   1.080       .  S
