geometry optimzed in LAMMPS
_audit_creation_date              2020-11-30 
_audit_creation_method            'lammps2cif' 
_symmetry_space_group_name_H-M    'P1' 
_symmetry_Int_Tables_number       1 
_symmetry_cell_setting            triclinic 
loop_ 
_symmetry_equiv_pos_as_xyz 
  x,y,z 
_cell_length_a                    24.04881267 
_cell_length_b                    34.592314835808764 
_cell_length_c                    41.42945029206921 
_cell_angle_alpha                 91.14226101390386 
_cell_angle_beta                  99.22578194122298 
_cell_angle_gamma                 89.79930956529022 
loop_ 
_atom_site_label 
_atom_site_type_symbol 
_atom_site_fract_x 
_atom_site_fract_y 
_atom_site_fract_z 
_atom_site_charge 
N1          N  0.38933001  0.62670768  0.70493227    -0.26900
N2          N  0.41679009  0.59804829  0.69284105    -0.34800
C3          C  0.41941582  0.56774939  0.71261885     0.01400
C4          C  0.39354692  0.57761367  0.73897895     0.07500
C5          C  0.37469593  0.61523867  0.73340470    -0.05600
H6          H  0.44412841  0.54209151  0.70985166     0.08100
H7          H  0.35481088  0.63362248  0.74971076     0.09300
Cu8        Cu  0.46937179  0.60341462  0.65866849     0.44200
Cu9        Cu  0.37946459  0.68105730  0.68326118     0.42000
Cu10       Cu  0.49288658  0.69637076  0.63575599     0.43900
N11         N  0.54683072  0.61990710  0.64869143    -0.34300
N12         N  0.55604076  0.65552162  0.64014389    -0.28500
C13         C  0.61179245  0.66201851  0.64465028    -0.04600
C14         C  0.63898328  0.62909494  0.65756508     0.07600
C15         C  0.59642622  0.60286853  0.65952995     0.01400
H16         H  0.63041361  0.69030407  0.64363903     0.09000
H17         H  0.60067454  0.57574867  0.67226286     0.08100
N18         N  0.42525757  0.73305474  0.63625986    -0.35700
N19         N  0.38327393  0.72842987  0.65292728    -0.27900
C20         C  0.34528763  0.75700406  0.64495771    -0.03100
C21         C  0.36487724  0.78037766  0.62230411     0.05500
C22         C  0.41557842  0.76426642  0.61764033     0.03600
H23         H  0.30560217  0.75963430  0.65391881     0.08700
H24         H  0.44283645  0.77360365  0.60091942     0.07500
N25         N  0.86445050  0.65493392  0.83230872    -0.26900
N26         N  0.82663115  0.62888339  0.81939824    -0.34800
C27         C  0.80723074  0.61039036  0.84355220     0.01400
C28         C  0.83422135  0.62507848  0.87313313     0.07500
C29         C  0.87056045  0.65307198  0.86518093    -0.05600
H30         H  0.77426109  0.58886959  0.83977450     0.08100
H31         H  0.89675405  0.67233102  0.88197392     0.09300
Cu32       Cu  0.79581993  0.62126484  0.77001434     0.44200
Cu33       Cu  0.89888952  0.69665144  0.80528490     0.42000
Cu34       Cu  0.83778218  0.69229507  0.71973256     0.43900
N35         N  0.76007885  0.62571845  0.72130880    -0.34300
N36         N  0.77573098  0.65286551  0.70273835    -0.28500
C37         C  0.73779133  0.65531758  0.67531103    -0.04600
C38         C  0.69605279  0.62830092  0.67658421     0.07600
C39         C  0.71183533  0.60972934  0.70599252     0.01400
H40         H  0.73726808  0.67800579  0.65766679     0.09000
H41         H  0.68646755  0.58992136  0.71730493     0.08100
N42         N  0.88771059  0.73700550  0.74093097    -0.35700
N43         N  0.91150269  0.73927110  0.77197355    -0.27900
C44         C  0.93684246  0.77413401  0.77755907    -0.03100
C45         C  0.92731875  0.79457259  0.74865573     0.05500
C46         C  0.89622657  0.77005690  0.72613425     0.03600
H47         H  0.95754075  0.78462834  0.80114547     0.08700
H48         H  0.87919827  0.77621359  0.70099908     0.07500
N49         N  0.51241600  0.41403126  0.84376210    -0.26900
N50         N  0.53848082  0.41516545  0.87435444    -0.34800
C51         C  0.56961286  0.38286870  0.88005558     0.01400
C52         C  0.56259180  0.36059226  0.85153172     0.07500
C53         C  0.52606409  0.38120028  0.82910247    -0.05600
H54         H  0.59564969  0.37631668  0.90307997     0.08100
H55         H  0.51143557  0.37343586  0.80375175     0.09300
Cu56       Cu  0.52802374  0.46064512  0.90619457     0.44200
Cu57       Cu  0.46265325  0.45818133  0.82257498     0.42000
Cu58       Cu  0.43469828  0.53972511  0.87184894     0.43900
N59         N  0.49511194  0.50307391  0.93376817    -0.34300
N60         N  0.46013123  0.53068880  0.92159913    -0.28500
C61         C  0.43739820  0.54727638  0.94609318    -0.04600
C62         C  0.45923553  0.52946862  0.97504660     0.07600
C63         C  0.49563068  0.50164940  0.96620025     0.01400
H64         H  0.40306279  0.56781665  0.94256057     0.09000
H65         H  0.51549039  0.47887049  0.98150386     0.08100
N66         N  0.41495281  0.53878894  0.82105400    -0.35700
N67         N  0.42504695  0.50809830  0.80340716    -0.27900
C68         C  0.41478272  0.51673332  0.77162146    -0.03100
C69         C  0.39731372  0.55478510  0.76885825     0.05500
C70         C  0.39750896  0.56794972  0.80071102     0.03600
H71         H  0.42347442  0.49751422  0.75214332     0.08700
H72         H  0.39014694  0.59725797  0.80859893     0.07500
N73         N  0.45944740  0.51391448  0.03359085    -0.03100
C74         C  0.41767272  0.49792335  0.04750579    -0.00500
C75         C  0.36552663  0.50612674  0.02954064    -0.23400
C76         C  0.37511165  0.52505735  0.00231960    -0.23600
C77         C  0.43278626  0.52797579  0.00468374    -0.00600
H78         H  0.32564555  0.49353868  0.03273527     0.13200
H79         H  0.34401376  0.53034980  0.98092351     0.13200
N80         N  0.50447699  0.53509038  0.05247956    -0.03100
C81         C  0.54027139  0.55663338  0.03762257    -0.00500
C82         C  0.54495914  0.59380459  0.05081319    -0.23400
C83         C  0.51678101  0.59442034  0.07679857    -0.23600
C84         C  0.49423145  0.55804615  0.07805464    -0.00600
H85         H  0.57438803  0.61575499  0.04599806     0.13200
H86         H  0.51760083  0.61758881  0.09480707     0.13200
N87         N  0.56529122  0.39936235  0.36867262    -0.26900
N88         N  0.52914613  0.42465900  0.37789741    -0.34800
C89         C  0.52300740  0.45438749  0.35741357     0.01400
C90         C  0.55589696  0.44793937  0.33353878     0.07500
C91         C  0.58226652  0.41261593  0.34121549    -0.05600
H92         H  0.49479484  0.47845778  0.35914293     0.08100
H93         H  0.61214325  0.39806130  0.32818800     0.09300
Cu94       Cu  0.47986287  0.41756893  0.41376892     0.44200
Cu95       Cu  0.58976269  0.34913152  0.39593146     0.42000
Cu96       Cu  0.49210019  0.33356299  0.45472463     0.43900
N97         N  0.41295276  0.39644066  0.43345846    -0.34300
N98         N  0.41713823  0.36311902  0.44845499    -0.28500
C99         C  0.36562840  0.34754682  0.44662378    -0.04600
C100        C  0.32707123  0.37184123  0.42863016     0.07600
C101        C  0.35860538  0.40317850  0.42164877     0.01400
H102        H  0.35857814  0.31763025  0.45195069     0.09000
H103        H  0.34498049  0.42502580  0.40377877     0.08100
N104        N  0.56645849  0.30419007  0.45441766    -0.35700
N105        N  0.60234088  0.30780910  0.43353058    -0.27900
C106        C  0.64653251  0.28380552  0.44287559    -0.03100
C107        C  0.63748015  0.26496010  0.47099804     0.05500
C108        C  0.58637716  0.27870470  0.47722349     0.03600
H109        H  0.68349383  0.28166006  0.43114153     0.08700
H110        H  0.56528510  0.27136577  0.49746143     0.07500
N111        N  0.17616949  0.29409142  0.24775535    -0.26900
N112        N  0.19883407  0.32667882  0.26080495    -0.34800
C113        C  0.22533789  0.34419885  0.23887450     0.01400
C114        C  0.21916252  0.32138086  0.21075343     0.07500
C115        C  0.18761483  0.28994550  0.21719100    -0.05600
H116        H  0.25004475  0.37037765  0.24377512     0.08100
H117        H  0.17634104  0.26484133  0.20149957     0.09300
Cu118      Cu  0.20175628  0.34179624  0.30955376     0.44200
Cu119      Cu  0.13954466  0.25364743  0.27384917     0.42000
Cu120      Cu  0.18212055  0.26294408  0.36191401     0.43900
N121        N  0.22301767  0.34454564  0.35985356    -0.34300
N122        N  0.21910395  0.31497180  0.37903528    -0.28500
C123        C  0.25017857  0.32245446  0.40848161    -0.04600
C124        C  0.27510190  0.35844459  0.40769945     0.07600
C125        C  0.25603162  0.37172228  0.37657989     0.01400
H126        H  0.25924372  0.30141318  0.42758552     0.09000
H127        H  0.27154911  0.39655574  0.36531828     0.08100
N128        N  0.14097048  0.21522021  0.33839458    -0.35700
N129        N  0.12239215  0.21273209  0.30659503    -0.27900
C130        C  0.09666277  0.17841524  0.29952484    -0.03100
C131        C  0.10029607  0.15823999  0.32820299     0.05500
C132        C  0.12860823  0.18228901  0.35231959     0.03600
H133        H  0.07892164  0.16832009  0.27521428     0.08700
H134        H  0.13941579  0.17634782  0.37809652     0.07500
N135        N  0.48790715  0.64007950  0.25561638    -0.26900
N136        N  0.45627672  0.64340352  0.22668574    -0.34800
C137        C  0.43973119  0.68025809  0.22248048     0.01400
C138        C  0.46125886  0.70134070  0.25033712     0.07500
C139        C  0.49151384  0.67494200  0.27104123    -0.05600
H140        H  0.41349997  0.69077031  0.20075508     0.08100
H141        H  0.51443149  0.68062746  0.29533113     0.09300
Cu142      Cu  0.43988320  0.59814491  0.19348187     0.44200
Cu143      Cu  0.52321715  0.58707587  0.27037412     0.42000
Cu144      Cu  0.51886964  0.50972513  0.20671817     0.43900
N145        N  0.45065680  0.56005004  0.15623828    -0.34300
N146        N  0.48399721  0.52947626  0.15989210    -0.28500
C147        C  0.49754713  0.51975021  0.13032926    -0.04600
C148        C  0.47137727  0.54550560  0.10720702     0.07600
C149        C  0.44163445  0.57014065  0.12476859     0.01400
H150        H  0.53016301  0.49928789  0.12679060     0.09000
H151        H  0.42319069  0.59742051  0.11641667     0.08100
N152        N  0.54338597  0.50116417  0.25735912    -0.35700
N153        N  0.54475393  0.52951845  0.27946861    -0.27900
C154        C  0.55442196  0.51456116  0.30948442    -0.03100
C155        C  0.55987604  0.47491589  0.30673037     0.05500
C156        C  0.55273849  0.46730336  0.27323606     0.03600
H157        H  0.55314184  0.53112071  0.33177532     0.08700
H158        H  0.54926400  0.43909487  0.26134859     0.07500
N159        N  0.84899380  0.63501875  0.05811865    -0.26900
N160        N  0.81344680  0.62230052  0.07672064    -0.34800
C161        C  0.82073904  0.64313223  0.10508438     0.01400
C162        C  0.86365997  0.66966477  0.10421402     0.07500
C163        C  0.88046966  0.66339648  0.07414771    -0.05600
H164        H  0.79624311  0.63960458  0.12455663     0.08100
H165        H  0.91152557  0.67966041  0.06387396     0.09300
Cu166      Cu  0.75456938  0.57936064  0.05987205     0.44200
Cu167      Cu  0.84678184  0.61946680  0.00942964     0.42000
Cu168      Cu  0.71556078  0.57701885  0.97150044     0.43900
N169        N  0.68441442  0.55023107  0.03502283    -0.34300
N170        N  0.66579167  0.55498392  0.00360160    -0.28500
C171        C  0.60953072  0.54995493  0.99814349    -0.04600
C172        C  0.59163556  0.54057848  0.02730881     0.07600
C173        C  0.64117592  0.53974358  0.04972504     0.01400
H174        H  0.58280125  0.55889084  0.97603252     0.09000
H175        H  0.64318518  0.54104994  0.07603646     0.08100
N176        N  0.77617486  0.59730691  0.94531381    -0.35700
N177        N  0.82456144  0.61270214  0.95925759    -0.27900
C178        C  0.85312829  0.62465387  0.93585663    -0.03100
C179        C  0.82140940  0.61591252  0.90572727     0.05500
C180        C  0.77300646  0.59851152  0.91263684     0.03600
H181        H  0.89345078  0.63910767  0.94046234     0.08700
H182        H  0.73735042  0.58852690  0.89523743     0.07500
N183        N  0.29560699  0.27704123  0.04270042    -0.26900
N184        N  0.32574111  0.29598204  0.02417547    -0.34800
C185        C  0.31244397  0.28252241  0.99303777     0.01400
C186        C  0.27194427  0.25388443  0.99220017     0.07500
C187        C  0.26252331  0.25136896  0.02413192    -0.05600
H188        H  0.32637463  0.29550267  0.97216361     0.08100
H189        H  0.22988338  0.23479445  0.03266150     0.09300
Cu190      Cu  0.37255338  0.34482763  0.04202735     0.44200
Cu191      Cu  0.28884036  0.29275217  0.09023831     0.42000
Cu192      Cu  0.34316697  0.38503048  0.12067194     0.43900
N193        N  0.40188278  0.39814438  0.06248399    -0.34300
N194        N  0.38862363  0.41340691  0.08978409    -0.28500
C195        C  0.40118239  0.45134589  0.09118425    -0.04600
C196        C  0.42450309  0.46055958  0.06388479     0.07600
C197        C  0.42441650  0.42592544  0.04641415     0.01400
H198        H  0.38753670  0.47168729  0.10854939     0.09000
H199        H  0.43140027  0.42272978  0.02132235     0.08100
N200        N  0.29501250  0.35052657  0.14583087    -0.35700
N201        N  0.27534247  0.31646156  0.13443289    -0.27900
C202        C  0.24504694  0.30119554  0.15556951    -0.03100
C203        C  0.24578751  0.32682125  0.18162711     0.05500
C204        C  0.27793691  0.35780629  0.17474393     0.03600
H205        H  0.22413221  0.27340311  0.15216341     0.08700
H206        H  0.28810999  0.38371910  0.18956339     0.07500
N207        N  0.88905280  0.84546322  0.22470337    -0.26900
N208        N  0.90898744  0.87557413  0.21104894    -0.34800
C209        C  0.90720961  0.90697710  0.23003966     0.01400
C210        C  0.88650166  0.89701806  0.25786329     0.07500
C211        C  0.87517106  0.85748397  0.25382257    -0.05600
H212        H  0.92617556  0.93421449  0.22552100     0.08100
H213        H  0.86045821  0.83873121  0.27125871     0.09300
Cu214      Cu  0.96115297  0.87398534  0.17647914     0.44200
Cu215      Cu  0.88775018  0.79030025  0.20155676     0.42000
Cu216      Cu  0.00896208  0.78591252  0.15686413     0.43900
N217        N  0.04319655  0.86734066  0.16916085    -0.34300
N218        N  0.06230761  0.83301499  0.16204559    -0.28500
C219        C  0.11884261  0.83420105  0.16597592    -0.04600
C220        C  0.13611118  0.87105082  0.17687128     0.07600
C221        C  0.08693637  0.89127054  0.17866368     0.01400
H222        H  0.14543758  0.80901899  0.16496503     0.09000
H223        H  0.08344173  0.91977045  0.18947975     0.08100
N224        N  0.94340519  0.74665012  0.15099043    -0.35700
N225        N  0.89918795  0.74691076  0.16640127    -0.27900
C226        C  0.86385600  0.71820195  0.15326284    -0.03100
C227        C  0.88728409  0.69967131  0.12845584     0.05500
C228        C  0.93743169  0.71858142  0.12799407     0.03600
H229        H  0.82307299  0.71260923  0.15999057     0.08700
H230        H  0.96693106  0.71328933  0.11123318     0.07500
N231        N  0.36930622  0.87475218  0.34327938    -0.26900
N232        N  0.32826397  0.89860682  0.33132233    -0.34800
C233        C  0.30273639  0.91196423  0.35586299     0.01400
C234        C  0.32895643  0.89604548  0.38462583     0.07500
C235        C  0.37137460  0.87292179  0.37588736    -0.05600
H236        H  0.26510342  0.92965853  0.35258921     0.08100
H237        H  0.39790255  0.85328097  0.39147134     0.09300
Cu238      Cu  0.29831761  0.90623525  0.28211529     0.44200
Cu239      Cu  0.41107800  0.83789520  0.31484692     0.42000
Cu240      Cu  0.35611891  0.84234854  0.22894343     0.43900
N241        N  0.26058916  0.89653892  0.23412133    -0.34300
N242        N  0.28206061  0.87202889  0.21460797    -0.28500
C243        C  0.24224189  0.86242629  0.18916590    -0.04600
C244        C  0.19323904  0.88186309  0.19271172     0.07600
C245        C  0.20659847  0.90366521  0.22130738     0.01400
H246        H  0.24660483  0.83933290  0.17167457     0.09000
H247        H  0.17714684  0.91886921  0.23424941     0.08100
N248        N  0.41142158  0.80032474  0.24901208    -0.35700
N249        N  0.43116609  0.79760437  0.28054716    -0.27900
C250        C  0.45593714  0.76273908  0.28588181    -0.03100
C251        C  0.45072924  0.74266155  0.25624589     0.02300
C252        C  0.42275541  0.76755712  0.23351519     0.03600
H253        H  0.47181367  0.75157458  0.30979894     0.08700
H254        H  0.40730135  0.76113158  0.20798342     0.07500
N255        N  0.02669346  0.06717988  0.33051199    -0.26900
N256        N  0.06927640  0.06274700  0.35457156    -0.34800
C257        C  0.10264056  0.09397890  0.35674825     0.01400
C258        C  0.08066843  0.11891888  0.33240273     0.07500
C259        C  0.03277674  0.10098260  0.31591321    -0.05600
H260        H  0.13852438  0.09899352  0.37569676     0.08100
H261        H  0.00267051  0.11274289  0.29631903     0.09300
Cu262      Cu  0.07297267  0.01930969  0.38792904     0.44200
Cu263      Cu  0.96014593  0.02854234  0.32250557     0.42000
Cu264      Cu  0.94896301  0.96040102  0.38574687     0.43900
N265        N  0.04420487  0.00168778  0.42921772    -0.34300
N266        N  0.99505149  0.98463328  0.42898122    -0.28500
C267        C  0.98042684  0.98948872  0.45897510    -0.04600
C268        C  0.02355413  0.00937817  0.47912135     0.07600
C269        C  0.06274378  0.01674544  0.45907851     0.01400
H270        H  0.94013030  0.98127874  0.46507783     0.09000
H271        H  0.09926624  0.03522896  0.46478922     0.08100
N272        N  0.91565336  0.94970687  0.33617415    -0.35700
N273        N  0.91537605  0.97739974  0.31461333    -0.27900
C274        C  0.89766783  0.96302067  0.28457315    -0.03100
C275        C  0.88795891  0.92383242  0.28638898     0.05500
C276        C  0.89916989  0.91628571  0.31974084     0.03600
H277        H  0.89911914  0.97909837  0.26258130     0.08700
H278        H  0.90111391  0.88811279  0.33078758     0.07500
N279        N  0.98757499  0.01842159  0.53295161    -0.03100
C280        C  0.97730894  0.05161764  0.54930434    -0.00500
C281        C  0.01336583  0.08014120  0.54201071    -0.23400
C282        C  0.04156132  0.06540576  0.51819984    -0.23600
C283        C  0.02254977  0.02802303  0.51165387    -0.00600
H284        H  0.01130352  0.11056417  0.54839624     0.13200
H285        H  0.06598090  0.08225670  0.50376216     0.13200
N286        N  0.97241365  0.98009167  0.54011607    -0.03100
C287        C  0.98545101  0.94750294  0.52403195    -0.00500
C288        C  0.94760584  0.91881382  0.52778135    -0.23400
C289        C  0.91447112  0.93300667  0.54939340    -0.23600
C290        C  0.93393872  0.96987916  0.55905695    -0.00600
H291        H  0.95071407  0.88864626  0.52083285     0.13200
H292        H  0.88754258  0.91510200  0.56140236     0.13200
N293        N  0.98449606  0.89148115  0.74353388    -0.26900
N294        N  0.94247754  0.89147688  0.71874313    -0.34800
C295        C  0.91563611  0.85737046  0.71729542     0.01400
C296        C  0.94138294  0.83496993  0.74275118     0.07500
C297        C  0.98475110  0.85758738  0.75912185    -0.05600
H298        H  0.88077316  0.84917004  0.69859607     0.08100
H299        H  0.01560970  0.84942028  0.77982378     0.09300
Cu300      Cu  0.92789889  0.93624885  0.68589321     0.44200
Cu301      Cu  0.04065053  0.93726511  0.75183847     0.42000
Cu302      Cu  0.03511247  0.01034599  0.68851734     0.43900
N303        N  0.93588053  0.97097793  0.64677428    -0.34300
N304        N  0.97960966  0.99368551  0.64578491    -0.28500
C305        C  0.98304125  0.00006065  0.61406926    -0.04600
C306        C  0.93793945  0.98174920  0.59420301     0.07600
C307        C  0.90904886  0.96400991  0.61626240     0.01400
H308        H  0.01832562  0.01415869  0.60606723     0.09000
H309        H  0.87551446  0.94306390  0.61048631     0.08100
N310        N  0.07901880  0.01774097  0.73661753    -0.35700
N311        N  0.08249920  0.98982864  0.75824121    -0.27900
C312        C  0.10641116  0.00372737  0.78758079    -0.03100
C313        C  0.11848263  0.04246242  0.78511449     0.05500
C314        C  0.10046519  0.05049065  0.75227683     0.03600
H315        H  0.10823382  0.98798829  0.81003662     0.08700
H316        H  0.09711314  0.07881335  0.74152687     0.07500
N317        N  0.14562773  0.11658758  0.85093387    -0.26900
N318        N  0.10567672  0.09503882  0.85994562    -0.34800
C319        C  0.09173315  0.06637998  0.83808927     0.01400
C320        C  0.12341368  0.06958475  0.81344866     0.07500
C321        C  0.15751334  0.10188500  0.82216184    -0.05600
H322        H  0.05869159  0.04558800  0.83932027     0.08100
H323        H  0.18855360  0.11355929  0.80878977     0.09300
Cu324      Cu  0.05994414  0.10787780  0.89650257     0.44200
Cu325      Cu  0.17857080  0.16435034  0.88051901     0.42000
Cu326      Cu  0.07024104  0.19902600  0.92932753     0.43900
N327        N  0.99293991  0.13329395  0.91367307    -0.34300
N328        N  0.99607281  0.16900144  0.92542185    -0.28500
C329        C  0.94387497  0.18251648  0.92611367    -0.04600
C330        C  0.90597931  0.15400795  0.91330848     0.07600
C331        C  0.93865085  0.12305864  0.90600348     0.01400
H332        H  0.93424642  0.21247823  0.93100396     0.09000
H333        H  0.92416810  0.09727644  0.89192478     0.08100
N334        N  0.15285321  0.21639738  0.93641505    -0.35700
N335        N  0.19320637  0.20453366  0.92020188    -0.27900
C336        C  0.24290566  0.21836344  0.93627572    -0.03100
C337        C  0.23250469  0.23928686  0.96371000     0.05500
C338        C  0.17522225  0.23731570  0.96275126     0.03600
H339        H  0.28372183  0.21116283  0.93000463     0.08700
H340        H  0.15163014  0.24814699  0.98118477     0.07500
N341        N  0.65804888  0.18808123  0.75500515    -0.26900
N342        N  0.69128838  0.15929810  0.76640213    -0.34800
C343        C  0.70869519  0.14011062  0.74131384     0.01400
C344        C  0.68545017  0.15771228  0.71266571     0.07500
C345        C  0.65310751  0.18781946  0.72219572    -0.05600
H346        H  0.73984111  0.11730009  0.74401637     0.08100
H347        H  0.63167901  0.20990540  0.70676093     0.09300
Cu348      Cu  0.72336887  0.15343126  0.81521680     0.44200
Cu349      Cu  0.63155067  0.23085194  0.78510863     0.42000
Cu350      Cu  0.71135566  0.23578933  0.86785076     0.43900
N351        N  0.77213513  0.16129109  0.86047712    -0.34300
N352        N  0.76992738  0.19248159  0.87913858    -0.28500
C353        C  0.81498442  0.19292625  0.90296858    -0.04600
C354        C  0.84693328  0.16036432  0.89904838     0.07600
C355        C  0.81826124  0.14086848  0.87203509     0.01400
H356        H  0.82611375  0.21682413  0.92002666     0.09000
H357        H  0.83313415  0.11612767  0.85937509     0.08100
N358        N  0.64854837  0.27418655  0.85018654    -0.35700
N359        N  0.61928480  0.27237990  0.82029978    -0.27900
C360        C  0.58327496  0.30235439  0.81652590    -0.03100
C361        C  0.59036523  0.32393586  0.84536993     0.05500
C362        C  0.63192893  0.30522127  0.86621244     0.03600
H363        H  0.55501137  0.30845303  0.79414193     0.08700
H364        H  0.64986560  0.31396897  0.89086855     0.07500
N365        N  0.31614285  0.85322332  0.56266211    -0.26900
N366        N  0.27384617  0.85443657  0.57948573    -0.34800
C367        C  0.28502115  0.82978205  0.60462141     0.01400
C368        C  0.33692433  0.81263883  0.60334161     0.07500
C369        C  0.35529173  0.82853255  0.57662906    -0.05600
H370        H  0.25634024  0.82335035  0.62141487     0.08100
H371        H  0.39250642  0.82057669  0.56642654     0.09300
Cu372      Cu  0.20076566  0.88608518  0.56385164     0.44200
Cu373      Cu  0.31554143  0.87645950  0.51713896     0.42000
Cu374      Cu  0.18002835  0.90093811  0.47542862     0.43900
N375        N  0.12986046  0.91210876  0.53727827    -0.34300
N376        N  0.12024817  0.91307537  0.50496936    -0.28500
C377        C  0.06779072  0.92620960  0.49501280    -0.04600
C378        C  0.04428285  0.93638761  0.52231033     0.07600
C379        C  0.08444008  0.92637969  0.54867339     0.01400
H380        H  0.04839999  0.92771184  0.46969813     0.09000
H381        H  0.07964465  0.92744989  0.57421553     0.08100
N382        N  0.25036432  0.89796997  0.45250558    -0.35700
N383        N  0.30086257  0.88870520  0.46795519    -0.27900
C384        C  0.33716082  0.88720679  0.44639825    -0.03100
C385        C  0.30811126  0.89677216  0.41605876     0.05500
C386        C  0.25326082  0.90353412  0.42081973     0.03600
H387        H  0.38110984  0.87913220  0.45228823     0.08700
H388        H  0.21764326  0.91050688  0.40242776     0.07500
N389        N  0.70386885  0.20578653  0.53753044    -0.26900
N390        N  0.73233016  0.19279388  0.51481700    -0.34800
C391        C  0.71548258  0.21282064  0.48712594     0.01400
C392        C  0.67415005  0.23910883  0.49316421     0.07500
C393        C  0.66843145  0.23364174  0.52535091    -0.05600
H394        H  0.73027267  0.20754274  0.46410590     0.08100
H395        H  0.63942463  0.24820430  0.53892689     0.09300
Cu396      Cu  0.78917037  0.14659349  0.52523317     0.44200
Cu397      Cu  0.70911151  0.18433154  0.58369371     0.42000
Cu398      Cu  0.80663959  0.11245167  0.61233218     0.43900
N399        N  0.84546560  0.10359385  0.54594721    -0.34300
N400        N  0.85408507  0.09382000  0.57711787    -0.28500
C401        C  0.89988351  0.07093029  0.58279658    -0.04600
C402        C  0.91992844  0.06412656  0.55368206     0.07600
C403        C  0.88459771  0.08582312  0.53104687     0.01400
H404        H  0.91926786  0.06249019  0.60694881     0.09000
H405        H  0.89058628  0.09132271  0.50620539     0.08100
N406        N  0.74953560  0.13467437  0.64066461    -0.35700
N407        N  0.71300172  0.16159268  0.62930631    -0.27900
C408        C  0.68293300  0.17244811  0.65256527    -0.03100
C409        C  0.70144390  0.15138716  0.68015580     0.05500
C410        C  0.74366620  0.12751755  0.67179006     0.03600
H411        H  0.65167394  0.19518349  0.64994670     0.08700
H412        H  0.76978995  0.10777610  0.68753266     0.07500
loop_ 
_geom_bond_atom_site_label_1 
_geom_bond_atom_site_label_2 
_geom_bond_distance 
_geom_bond_site_symmetry_2 
_ccdc_geom_bond_type 
N1            N2   1.323       .  A
N1            C5   1.351       .  A
N1           Cu9   2.096       .  S
N2            C3   1.338       .  A
N2           Cu8   2.055       .  S
C3            C4   1.378       .  A
C3            H6   1.081       .  S
C4            C5   1.388       .  A
C4           C69   1.472       .  S
C5            H7   1.083       .  S
Cu8          N11   2.057       .  S
Cu9          N19   2.096       .  S
Cu10         N12   2.060       .  S
Cu10         N18   2.062       .  S
N11          N12   1.318       .  A
N11          C15   1.344       .  A
N12          C13   1.343       .  A
C13          C14   1.385       .  A
C13          H16   1.082       .  S
C14          C15   1.383       .  A
C14          C38   1.469       .  S
C15          H17   1.082       .  S
N18          N19   1.323       .  A
N18          C22   1.337       .  A
N19          C20   1.353       .  A
C20          C21   1.390       .  A
C20          H23   1.081       .  S
C21          C22   1.379       .  A
C21         C368   1.475       .  S
C22          H24   1.082       .  S
N25          N26   1.325       .  A
N25          C29   1.349       .  A
N25         Cu33   2.096       .  S
N26          C27   1.344       .  A
N26         Cu32   2.073       .  S
C27          C28   1.380       .  A
C27          H30   1.080       .  S
C28          C29   1.386       .  A
C28         C179   1.473       .  S
C29          H31   1.081       .  S
Cu32         N35   2.071       .  S
Cu33         N43   2.095       .  S
Cu34         N36   2.055       .  S
Cu34         N42   2.056       .  S
N35          N36   1.319       .  A
N35          C39   1.345       .  A
N36          C37   1.342       .  A
C37          C38   1.382       .  A
C37          H40   1.082       .  S
C38          C39   1.387       .  A
C39          H41   1.081       .  S
N42          N43   1.322       .  A
N42          C46   1.340       .  A
N43          C44   1.352       .  A
C44          C45   1.390       .  A
C44          H47   1.080       .  S
C45          C46   1.378       .  A
C45         C296   1.473       .  S
C46          H48   1.081       .  S
N49          N50   1.321       .  A
N49          C53   1.342       .  A
N49         Cu57   2.059       .  S
N50          C51   1.346       .  A
N50         Cu56   2.073       .  S
C51          C52   1.385       .  A
C51          H54   1.081       .  S
C52          C53   1.380       .  A
C52         C361   1.468       .  S
C53          H55   1.082       .  S
Cu56         N59   2.074       .  S
Cu57         N67   2.060       .  S
Cu58         N60   2.083       .  S
Cu58         N66   2.081       .  S
N59          N60   1.324       .  A
N59          C63   1.344       .  A
N60          C61   1.346       .  A
C61          C62   1.385       .  A
C61          H64   1.081       .  S
C62          C63   1.382       .  A
C62          C77   1.472   1_556  S
C63          H65   1.082       .  S
N66          N67   1.321       .  A
N66          C70   1.350       .  A
N67          C68   1.340       .  A
C68          C69   1.382       .  A
C68          H71   1.081       .  S
C69          C70   1.387       .  A
C70          H72   1.082       .  S
N73          C77   1.363       .  A
N73          C74   1.360       .  A
N73          N80   1.426       .  S
C74          C75   1.383       .  A
C74         C196   1.468       .  S
C75          C76   1.367       .  A
C75          H78   1.083       .  S
C76          C77   1.379       .  A
C76          H79   1.082   1_554  S
N80          C84   1.365       .  A
N80          C81   1.367       .  A
C81          C82   1.385       .  A
C81         C172   1.474       .  S
C82          C83   1.361       .  A
C82          H85   1.083       .  S
C83          C84   1.377       .  A
C83          H86   1.082       .  S
C84         C148   1.478       .  S
N87          N88   1.325       .  A
N87          C91   1.357       .  A
N87         Cu95   2.121       .  S
N88          C89   1.339       .  A
N88         Cu94   2.063       .  S
C89          C90   1.376       .  A
C89          H92   1.081       .  S
C90          C91   1.393       .  A
C90         C155   1.480       .  S
C91          H93   1.083       .  S
Cu94         N97   2.060       .  S
Cu95        N105   2.120       .  S
Cu96         N98   2.052       .  S
Cu96        N104   2.055       .  S
N97          N98   1.316       .  A
N97         C101   1.341       .  A
N98          C99   1.343       .  A
C99         C100   1.386       .  A
C99         H102   1.082       .  S
C100        C101   1.387       .  A
C100        C124   1.473       .  S
C101        H103   1.081       .  S
N104        N105   1.324       .  A
N104        C108   1.336       .  A
N105        C106   1.358       .  A
C106        C107   1.394       .  A
C106        H109   1.081       .  S
C107        C108   1.377       .  A
C107        C392   1.479       .  S
C108        H110   1.082       .  S
N111        N112   1.321       .  A
N111        C115   1.343       .  A
N111       Cu119   2.068       .  S
N112        C113   1.345       .  A
N112       Cu118   2.066       .  S
C113        C114   1.382       .  A
C113        H116   1.083       .  S
C114        C115   1.383       .  A
C114        C203   1.469       .  S
C115        H117   1.083       .  S
Cu118       N121   2.065       .  S
Cu119       N129   2.067       .  S
Cu120       N122   2.072       .  S
Cu120       N128   2.072       .  S
N121        N122   1.321       .  A
N121        C125   1.341       .  A
N122        C123   1.345       .  A
C123        C124   1.387       .  A
C123        H126   1.082       .  S
C124        C125   1.384       .  A
C125        H127   1.081       .  S
N128        N129   1.323       .  A
N128        C132   1.343       .  A
N129        C130   1.346       .  A
C130        C131   1.380       .  A
C130        H133   1.081       .  S
C131        C132   1.381       .  A
C131        C258   1.464       .  S
C132        H134   1.081       .  S
N135        N136   1.319       .  A
N135        C139   1.350       .  A
N135       Cu143   2.079       .  S
N136        C137   1.341       .  A
N136       Cu142   2.060       .  S
C137        C138   1.382       .  A
C137        H140   1.082       .  S
C138        C139   1.388       .  A
C138        C251   1.473       .  S
C139        H141   1.082       .  S
Cu142       N145   2.057       .  S
Cu143       N153   2.082       .  S
Cu144       N146   2.112       .  S
Cu144       N152   2.113       .  S
N145        N146   1.321       .  A
N145        C149   1.340       .  A
N146        C147   1.353       .  A
C147        C148   1.394       .  A
C147        H150   1.080       .  S
C148        C149   1.380       .  A
C149        H151   1.081       .  S
N152        N153   1.325       .  A
N152        C156   1.355       .  A
N153        C154   1.342       .  A
C154        C155   1.381       .  A
C154        H157   1.082       .  S
C155        C156   1.391       .  A
C156        H158   1.082       .  S
N159        N160   1.321       .  A
N159        C163   1.340       .  A
N159       Cu167   2.070       .  S
N160        C161   1.353       .  A
N160       Cu166   2.087       .  S
C161        C162   1.389       .  A
C161        H164   1.081       .  S
C162        C163   1.383       .  A
C162        C227   1.479       .  S
C163        H165   1.082       .  S
Cu166       N169   2.082       .  S
Cu167       N177   2.070   1_554  S
Cu168       N170   2.083   1_556  S
Cu168       N176   2.083       .  S
N169        N170   1.320       .  A
N169        C173   1.341       .  A
N170        C171   1.347   1_554  A
C171        C172   1.391   1_556  A
C171        H174   1.081       .  S
C172        C173   1.389       .  A
C173        H175   1.083       .  S
N176        N177   1.322       .  A
N176        C180   1.345       .  A
N177        C178   1.347       .  A
C178        C179   1.383       .  A
C178        H181   1.080       .  S
C179        C180   1.385       .  A
C180        H182   1.081       .  S
N183        N184   1.321       .  A
N183        C187   1.340       .  A
N183       Cu191   2.064       .  S
N184        C185   1.352   1_554  A
N184       Cu190   2.089       .  S
C185        C186   1.388       .  A
C185        H188   1.082       .  S
C186        C187   1.382   1_556  A
C186        C337   1.473       .  S
C187        H189   1.082       .  S
Cu190       N193   2.091       .  S
Cu191       N201   2.064       .  S
Cu192       N194   2.074       .  S
Cu192       N200   2.073       .  S
N193        N194   1.323       .  A
N193        C197   1.344       .  A
N194        C195   1.346       .  A
C195        C196   1.384       .  A
C195        H198   1.084       .  S
C196        C197   1.387       .  A
C197        H199   1.083       .  S
N200        N201   1.321       .  A
N200        C204   1.346       .  A
N201        C202   1.342       .  A
C202        C203   1.381       .  A
C202        H205   1.083       .  S
C203        C204   1.384       .  A
C204        H206   1.082       .  S
N207        N208   1.322       .  A
N207        C211   1.359       .  A
N207       Cu215   2.117       .  S
N208        C209   1.333       .  A
N208       Cu214   2.050       .  S
C209        C210   1.377       .  A
C209        H212   1.081       .  S
C210        C211   1.397       .  A
C210        C275   1.484       .  S
C211        H213   1.082       .  S
Cu214       N217   2.055   1_655  S
Cu215       N225   2.119       .  S
Cu216       N218   2.064       .  S
Cu216       N224   2.066   1_455  S
N217        N218   1.317       .  A
N217        C221   1.344       .  A
N218        C219   1.344       .  A
C219        C220   1.386       .  A
C219        H222   1.083       .  S
C220        C221   1.383       .  A
C220        C244   1.471       .  S
C221        H223   1.083       .  S
N224        N225   1.325       .  A
N224        C228   1.338       .  A
N225        C226   1.357       .  A
C226        C227   1.393       .  A
C226        H229   1.081       .  S
C227        C228   1.377       .  A
C228        H230   1.082       .  S
N231        N232   1.325       .  A
N231        C235   1.347       .  A
N231       Cu239   2.082       .  S
N232        C233   1.343       .  A
N232       Cu238   2.072       .  S
C233        C234   1.380       .  A
C233        H236   1.083       .  S
C234        C235   1.383       .  A
C234        C385   1.468       .  S
C235        H237   1.081       .  S
Cu238       N241   2.070       .  S
Cu239       N249   2.081       .  S
Cu240       N242   2.062       .  S
Cu240       N248   2.062       .  S
N241        N242   1.320       .  A
N241        C245   1.346       .  A
N242        C243   1.343       .  A
C243        C244   1.381       .  A
C243        H246   1.084       .  S
C244        C245   1.385       .  A
C245        H247   1.083       .  S
N248        N249   1.322       .  A
N248        C252   1.340       .  A
N249        C250   1.350       .  A
C250        C251   1.387       .  A
C250        H253   1.082       .  S
C251        C252   1.381       .  A
C252        H254   1.082       .  S
N255        N256   1.320       .  A
N255        C259   1.346       .  A
N255       Cu263   2.070   1_455  S
N256        C257   1.341       .  A
N256       Cu262   2.054       .  S
C257        C258   1.379       .  A
C257        H260   1.081       .  S
C258        C259   1.383       .  A
C259        H261   1.082       .  S
Cu262       N265   2.049       .  S
Cu263       N273   2.067   1_545  S
Cu264       N266   2.109       .  S
Cu264       N272   2.107       .  S
N265        N266   1.322   1_445  A
N265        C269   1.342       .  A
N266        C267   1.352       .  A
C267        C268   1.397   1_665  A
C267        H270   1.080       .  S
C268        C269   1.380       .  A
C268        C283   1.486       .  S
C269        H271   1.081       .  S
N272        N273   1.322       .  A
N272        C276   1.357       .  A
N273        C274   1.336       .  A
C274        C275   1.382       .  A
C274        H277   1.082       .  S
C275        C276   1.394       .  A
C276        H278   1.083       .  S
N279        C283   1.359   1_655  A
N279        C280   1.364       .  A
N279        N286   1.426   1_545  S
C280        C281   1.385   1_655  A
C280        C402   1.482       .  S
C281        C282   1.373       .  A
C281        H284   1.083       .  S
C282        C283   1.380       .  A
C282        H285   1.082       .  S
N286        C290   1.358       .  A
N286        C287   1.359       .  A
C287        C288   1.377       .  A
C287        C378   1.477   1_655  S
C288        C289   1.373       .  A
C288        H291   1.083       .  S
C289        C290   1.389       .  A
C289        H292   1.081       .  S
C290        C306   1.493       .  S
N293        N294   1.320       .  A
N293        C297   1.349       .  A
N293       Cu301   2.072   1_655  S
N294        C295   1.343       .  A
N294       Cu300   2.074       .  S
C295        C296   1.384       .  A
C295        H298   1.081       .  S
C296        C297   1.385       .  A
C297        H299   1.082   1_655  S
Cu300       N303   2.070       .  S
Cu301       N311   2.073       .  S
Cu302       N304   2.111   1_445  S
Cu302       N310   2.111       .  S
N303        N304   1.321       .  A
N303        C307   1.342       .  A
N304        C305   1.352   1_565  A
C305        C306   1.397   1_545  A
C305        H308   1.080   1_655  S
C306        C307   1.387       .  A
C307        H309   1.081       .  S
N310        N311   1.324   1_545  A
N310        C314   1.356       .  A
N311        C312   1.339   1_565  A
C312        C313   1.381       .  A
C312        H315   1.082   1_545  S
C313        C314   1.393       .  A
C313        C320   1.478       .  S
C314        H316   1.082       .  S
N317        N318   1.323       .  A
N317        C321   1.358       .  A
N317       Cu325   2.116       .  S
N318        C319   1.336       .  A
N318       Cu324   2.050       .  S
C319        C320   1.375       .  A
C319        H322   1.082       .  S
C320        C321   1.395       .  A
C321        H323   1.082       .  S
Cu324       N327   2.051   1_455  S
Cu325       N335   2.118       .  S
Cu326       N328   2.049   1_455  S
Cu326       N334   2.052       .  S
N327        N328   1.317       .  A
N327        C331   1.340       .  A
N328        C329   1.342       .  A
C329        C330   1.384       .  A
C329        H332   1.083       .  S
C330        C331   1.383       .  A
C330        C354   1.466       .  S
C331        H333   1.083       .  S
N334        N335   1.325       .  A
N334        C338   1.337       .  A
N335        C336   1.355       .  A
C336        C337   1.391       .  A
C336        H339   1.082       .  S
C337        C338   1.374       .  A
C338        H340   1.082       .  S
N341        N342   1.321       .  A
N341        C345   1.345       .  A
N341       Cu349   2.080       .  S
N342        C343   1.344       .  A
N342       Cu348   2.059       .  S
C343        C344   1.380       .  A
C343        H346   1.081       .  S
C344        C345   1.386       .  A
C344        C409   1.471       .  S
C345        H347   1.081       .  S
Cu348       N351   2.060       .  S
Cu349       N359   2.080       .  S
Cu350       N352   2.061       .  S
Cu350       N358   2.062       .  S
N351        N352   1.321       .  A
N351        C355   1.340       .  A
N352        C353   1.344       .  A
C353        C354   1.383       .  A
C353        H356   1.083       .  S
C354        C355   1.381       .  A
C355        H357   1.084       .  S
N358        N359   1.323       .  A
N358        C362   1.344       .  A
N359        C360   1.344       .  A
C360        C361   1.384       .  A
C360        H363   1.082       .  S
C361        C362   1.380       .  A
C362        H364   1.081       .  S
N365        N366   1.322       .  A
N365        C369   1.338       .  A
N365       Cu373   2.063       .  S
N366        C367   1.352       .  A
N366       Cu372   2.087       .  S
C367        C368   1.388       .  A
C367        H370   1.082       .  S
C368        C369   1.380       .  A
C369        H371   1.082       .  S
Cu372       N375   2.087       .  S
Cu373       N383   2.064       .  S
Cu374       N376   2.069       .  S
Cu374       N382   2.070       .  S
N375        N376   1.322       .  A
N375        C379   1.346       .  A
N376        C377   1.343       .  A
C377        C378   1.382       .  A
C377        H380   1.079       .  S
C378        C379   1.386       .  A
C379        H381   1.083       .  S
N382        N383   1.320       .  A
N382        C386   1.343       .  A
N383        C384   1.345       .  A
C384        C385   1.382       .  A
C384        H387   1.083       .  S
C385        C386   1.383       .  A
C386        H388   1.081       .  S
N389        N390   1.320       .  A
N389        C393   1.336       .  A
N389       Cu397   2.050       .  S
N390        C391   1.357       .  A
N390       Cu396   2.105       .  S
C391        C392   1.394       .  A
C391        H394   1.082       .  S
C392        C393   1.379       .  A
C393        H395   1.081       .  S
Cu396       N399   2.109       .  S
Cu397       N407   2.050       .  S
Cu398       N400   2.083       .  S
Cu398       N406   2.080       .  S
N399        N400   1.325       .  A
N399        C403   1.346       .  A
N400        C401   1.347       .  A
C401        C402   1.385       .  A
C401        H404   1.079       .  S
C402        C403   1.390       .  A
C403        H405   1.082       .  S
N406        N407   1.319       .  A
N406        C410   1.347       .  A
N407        C408   1.341       .  A
C408        C409   1.380       .  A
C408        H411   1.081       .  S
C409        C410   1.389       .  A
C410        H412   1.082       .  S
