geometry optimzed in LAMMPS
_audit_creation_date              2020-12-01 
_audit_creation_method            'lammps2cif' 
_symmetry_space_group_name_H-M    'P1' 
_symmetry_Int_Tables_number       1 
_symmetry_cell_setting            triclinic 
loop_ 
_symmetry_equiv_pos_as_xyz 
  x,y,z 
_cell_length_a                    43.04735064 
_cell_length_b                    43.04363067098541 
_cell_length_c                    43.043705210550954 
_cell_angle_alpha                 90.0010148601056 
_cell_angle_beta                  89.76495368225741 
_cell_angle_gamma                 89.99504462594895 
loop_ 
_atom_site_label 
_atom_site_type_symbol 
_atom_site_fract_x 
_atom_site_fract_y 
_atom_site_fract_z 
_atom_site_charge 
C1          C  0.04243446  0.04260870  0.04259967     0.86200
C2          C  0.02486479  0.06471937  0.06518898    -0.54000
C3          C  0.04334984  0.08294366  0.08377684     0.09200
C4          C  0.07838609  0.07726055  0.07854024     0.20100
C5          C  0.06502126  0.06470905  0.02502011    -0.54700
C6          C  0.08361467  0.08293374  0.04349866     0.09300
C7          C  0.06422107  0.02384587  0.06438757    -0.54300
C8          C  0.08307416  0.04186287  0.08323554     0.09800
H9          H  0.99968661  0.06615676  0.06598426     0.14400
H10         H  0.09343007  0.09180594  0.09357970     0.00100
H11         H  0.06581050  0.06613977  0.99983943     0.14700
H12         H  0.06476430  0.99865886  0.06493463     0.14400
C13         C  0.45709948  0.04560971  0.45727026     0.86200
C14         C  0.47513636  0.06774449  0.43513689    -0.54000
C15         C  0.45687541  0.08634276  0.41662787     0.09200
C16         C  0.42167728  0.08120303  0.42184564     0.20100
C17         C  0.43497441  0.06775708  0.47530921    -0.54700
C18         C  0.41646602  0.08635469  0.45704550     0.09300
C19         C  0.43501806  0.02768224  0.43519544    -0.54300
C20         C  0.41651673  0.04602658  0.41669545     0.09800
H21         H  0.50033040  0.06856799  0.43423053     0.14400
H22         H  0.40681655  0.09611601  0.40698282     0.00100
H23         H  0.43407070  0.06858663  0.50050527     0.14700
H24         H  0.43414634  0.00248958  0.43432718     0.14400
C25         C  0.45991192  0.46000657  0.04303440     0.86200
C26         C  0.47867458  0.43824543  0.06492301    -0.54000
C27         C  0.46066740  0.41933449  0.08391061     0.09200
C28         C  0.42526478  0.42395596  0.07922060     0.20100
C29         C  0.43788791  0.43735861  0.02561660    -0.54700
C30         C  0.41966897  0.41872152  0.04420689     0.09300
C31         C  0.43769761  0.47752110  0.06562427    -0.54300
C32         C  0.41946739  0.45898674  0.08434244     0.09800
H33         H  0.00386123  0.43774613  0.06540135     0.14400
H34         H  0.41071282  0.40887365  0.09433664     0.00100
H35         H  0.43648573  0.43657715  0.00044265     0.14700
H36         H  0.43619234  0.00269946  0.06630720     0.14400
C37         C  0.04285791  0.45999556  0.46008473     0.86200
C38         C  0.06544332  0.47750731  0.43786688    -0.54000
C39         C  0.08416425  0.45897199  0.41963613     0.09200
C40         C  0.07904789  0.42394093  0.42543622     0.20100
C41         C  0.02544557  0.43734237  0.43805981    -0.54700
C42         C  0.04403784  0.41870157  0.41984165     0.09300
C43         C  0.06474926  0.43823651  0.47884975    -0.54300
C44         C  0.08373827  0.41932273  0.46084145     0.09800
H45         H  0.06612858  0.00268026  0.43635564     0.14400
H46         H  0.09416491  0.40885756  0.41088332     0.00100
H47         H  0.00027394  0.43655963  0.43665699     0.14700
H48         H  0.06522758  0.43774040  0.00403847     0.14400
C49         C  0.47874910  0.02381361  0.47891776     0.86200
C50         C  0.00058053  0.04189635  0.00074785    -0.54000
C51         C  0.01960596  0.02461297  0.01977437     0.09200
C52         C  0.01423910  0.48829708  0.01441637     0.20100
C53         C  0.00071359  0.00190379  0.46080754    -0.54700
C54         C  0.01978456  0.48286837  0.47808463     0.09300
C55         C  0.46064120  0.00191242  0.00088613    -0.54300
C56         C  0.47791046  0.48287432  0.01996294     0.09800
H57         H  0.00088324  0.06712195  0.00104876     0.14400
H58         H  0.02907104  0.47348133  0.02924937     0.00100
H59         H  0.00109654  0.00159404  0.43558264     0.14700
H60         H  0.43541835  0.00160727  0.00127109     0.14400
C61         C  0.35775687  0.35914978  0.28114155     0.02900
C62         C  0.34900440  0.39023839  0.27417620    -0.13300
C63         C  0.36989247  0.40904260  0.25683987     0.00400
C64         C  0.39501294  0.39559548  0.24295365    -0.11800
C65         C  0.40842403  0.37155184  0.25851573     0.02900
C66         C  0.38935951  0.35095859  0.27590876    -0.11200
H67         H  0.32727597  0.39964198  0.28275704     0.08500
H68         H  0.40882813  0.40899114  0.22648511     0.06000
H69         H  0.39887145  0.32983889  0.28567320     0.05800
C70         C  0.28100912  0.35914519  0.35789898     0.02900
C71         C  0.27576663  0.35095214  0.38950077    -0.13300
C72         C  0.25835984  0.37154164  0.40856098     0.00400
C73         C  0.24279232  0.39557756  0.39514316    -0.11800
C74         C  0.25669095  0.40903132  0.37003462     0.02900
C75         C  0.27404106  0.39023325  0.34914855    -0.11200
H76         H  0.28553428  0.32983510  0.39901564     0.08500
H77         H  0.22631437  0.40896933  0.40895359     0.06000
H78         H  0.28262868  0.39964051  0.32742415     0.05800
C79         C  0.22122578  0.35630504  0.14542917     0.02900
C80         C  0.22666729  0.38779104  0.15411574    -0.13300
C81         C  0.24432922  0.40692433  0.13373615     0.00400
C82         C  0.26006684  0.39340740  0.10974794    -0.11800
C83         C  0.24546488  0.36911874  0.09572083     0.02900
C84         C  0.22790160  0.34812700  0.11412457    -0.11200
H85         H  0.21686756  0.39714566  0.17533213     0.08500
H86         H  0.27677236  0.40709812  0.09651219     0.06000
H87         H  0.21896205  0.32678885  0.10428770     0.05800
C88         C  0.35541586  0.22205937  0.14483460     0.02900
C89         C  0.38708729  0.22673951  0.15323942    -0.13300
C90         C  0.40655806  0.24404584  0.13284102     0.00400
C91         C  0.39334414  0.26008704  0.10899977    -0.11800
C92         C  0.36838415  0.24644167  0.09522322     0.02900
C93         C  0.34714018  0.22926259  0.11372675    -0.11200
H94         H  0.39630267  0.21670896  0.17432787     0.08500
H95         H  0.40732767  0.27656260  0.09580024     0.06000
H96         H  0.32547958  0.22096764  0.10407585     0.05800
O97         O  0.20556996  0.35542869  0.49629131    -0.73200
O98         O  0.29827669  0.35588491  0.00765493    -0.74200
O99         O  0.24603023  0.34703905  0.04629609    -0.62800
O100        O  0.25801019  0.34825264  0.45744082    -0.71200
O101        O  0.25711984  0.39987536  0.45615206    -0.70800
O102        O  0.24611072  0.39862458  0.04887450    -0.62000
O103        O  0.29629062  0.40747757  0.00810101    -0.74500
O104        O  0.20667302  0.40702392  0.49720482    -0.73300
Cu105      Cu  0.25197557  0.34956620  0.00189803     1.04600
Cu106      Cu  0.25152437  0.40541422  0.00261162     1.04300
C107        C  0.19159761  0.38209626  0.49583404     0.93000
C108        C  0.31176370  0.38276612  0.00880197     0.92100
C109        C  0.24516532  0.37155445  0.06198905     0.84300
C110        C  0.25860575  0.37316076  0.44236255     0.90600
O111        O  0.40590985  0.29703127  0.00712018    -0.73200
O112        O  0.40508687  0.20789944  0.49612933    -0.74200
O113        O  0.39796899  0.25793439  0.45533328    -0.62800
O114        O  0.39725771  0.24719881  0.04790407    -0.71200
O115        O  0.34565453  0.24766532  0.04608302    -0.70800
O116        O  0.34634553  0.25866915  0.45695322    -0.62000
O117        O  0.35345727  0.20679600  0.49610177    -0.74500
O118        O  0.35431396  0.29936037  0.00686293    -0.73300
Cu119      Cu  0.40368193  0.25249712  0.00164223     1.04600
Cu120      Cu  0.34781601  0.25314265  0.00151466     1.04300
C121        C  0.38129432  0.31261371  0.00782834     0.93000
C122        C  0.38013120  0.19290222  0.49509589     0.92100
C123        C  0.37123382  0.25922738  0.44170864     0.84300
C124        C  0.37033744  0.24650691  0.06142380     0.90600
C125        C  0.39630650  0.39625040  0.03113849     0.02900
C126        C  0.40444168  0.36489258  0.02476276    -0.13300
C127        C  0.38347164  0.34637776  0.00745775     0.00400
C128        C  0.35908900  0.36027983  0.99289359    -0.11800
C129        C  0.34568066  0.38458408  0.00821373     0.02900
C130        C  0.36487878  0.40501814  0.02557862    -0.11200
H131        H  0.42578052  0.35510264  0.03370566     0.08500
H132        H  0.34538500  0.34694443  0.47639480     0.06000
H133        H  0.35559934  0.42637786  0.03508042     0.05800
C134        C  0.35761851  0.28259038  0.35774569     0.02900
C135        C  0.38896582  0.27647521  0.34917607    -0.13300
C136        C  0.40777049  0.25902701  0.36980257     0.00400
C137        C  0.39417939  0.24420901  0.39431594    -0.11800
C138        C  0.36966432  0.25903021  0.40790296     0.02900
C139        C  0.34904456  0.27648002  0.38909376    -0.11200
H140        H  0.39852094  0.28569786  0.32777750     0.08500
H141        H  0.40770069  0.22770183  0.40784088     0.06000
H142        H  0.32764694  0.28570755  0.39864644     0.05800
C143        C  0.14528156  0.35628325  0.22139047     0.02900
C144        C  0.15396439  0.38776673  0.22684948    -0.13300
C145        C  0.13358366  0.40689545  0.24451939     0.00400
C146        C  0.10959567  0.39337510  0.26024875    -0.11800
C147        C  0.09557409  0.36908934  0.24563477     0.02900
C148        C  0.11397989  0.34810347  0.22806167    -0.11200
H149        H  0.17517875  0.39712428  0.21705423     0.08500
H150        H  0.09635693  0.40706321  0.27695692     0.06000
H151        H  0.10414611  0.32676892  0.21911045     0.05800
O152        O  0.45729638  0.34824652  0.25814887    -0.73200
O153        O  0.04615175  0.34701415  0.24619339    -0.74200
O154        O  0.00749608  0.35585942  0.29843417    -0.62800
O155        O  0.49616107  0.35542568  0.20571657    -0.71200
O156        O  0.49706493  0.40702068  0.20684262    -0.70800
O157        O  0.00796403  0.40745223  0.29646041    -0.62000
O158        O  0.04873187  0.39859936  0.24627637    -0.74500
O159        O  0.45601769  0.39987010  0.25729188    -0.73300
Cu160      Cu  0.00175367  0.34954980  0.25212625     1.04600
Cu161      Cu  0.00247380  0.40539819  0.25169411     1.04300
C162        C  0.44222393  0.37315913  0.25876199     0.93000
C163        C  0.06184465  0.37152752  0.24533072     0.92100
C164        C  0.00864892  0.38273875  0.31192845     0.84300
C165        C  0.49569935  0.38209832  0.19175523     0.90600
O166        O  0.45681622  0.25864218  0.34648467    -0.73200
O167        O  0.04593205  0.24761315  0.34578121    -0.74200
O168        O  0.49595057  0.20675493  0.35360594    -0.62800
O169        O  0.00672786  0.29932441  0.35445598    -0.71200
O170        O  0.00699643  0.29699768  0.40605583    -0.70800
O171        O  0.49598008  0.20788016  0.40523978    -0.62000
O172        O  0.04776427  0.24715447  0.39738834    -0.74500
O173        O  0.45519803  0.25792366  0.39811256    -0.73300
Cu174      Cu  0.00137085  0.25310284  0.34795343     1.04600
Cu175      Cu  0.00150563  0.25246988  0.40382544     1.04300
C176        C  0.44157383  0.25921405  0.37137479     0.93000
C177        C  0.06127698  0.24645855  0.37046218     0.92100
C178        C  0.49494232  0.19287347  0.38028764     0.84300
C179        C  0.00770046  0.31257881  0.38144021     0.90600
C180        C  0.03097624  0.39622539  0.39647664     0.02900
C181        C  0.02540983  0.40499453  0.36504939    -0.13300
C182        C  0.00805522  0.38455564  0.34584702     0.00400
C183        C  0.99274764  0.36024583  0.35925177    -0.11800
C184        C  0.00732473  0.34634295  0.38362574     0.02900
C185        C  0.02462043  0.36486156  0.40460317    -0.11200
H186        H  0.03490141  0.42635808  0.35577282     0.08500
H187        H  0.47625241  0.34690851  0.34554608     0.06000
H188        H  0.03357020  0.35507110  0.42593967     0.05800
C189        C  0.14469612  0.22205305  0.35552280     0.02900
C190        C  0.11358208  0.22923005  0.34725246    -0.13300
C191        C  0.09507308  0.24640690  0.36849841     0.00400
C192        C  0.10884731  0.26007743  0.39344786    -0.11800
C193        C  0.13269483  0.24405133  0.40666561     0.02900
C194        C  0.15310134  0.22674974  0.38719470    -0.11200
H195        H  0.10393218  0.22091848  0.32559602     0.08500
H196        H  0.09564186  0.27655288  0.40742928     0.06000
H197        H  0.17419444  0.21673178  0.39641124     0.05800
C198        C  0.35507293  0.14621993  0.22055126     0.02900
C199        C  0.38649887  0.15498763  0.22611102    -0.13300
C200        C  0.40569931  0.13455830  0.24348193     0.00400
C201        C  0.39229603  0.11025553  0.25880458    -0.11800
C202        C  0.36791076  0.09635403  0.24424792     0.02900
C203        C  0.34693923  0.11486605  0.22693853    -0.11200
H204        H  0.39577558  0.17634471  0.21660496     0.08500
H205        H  0.40600308  0.09692171  0.27530366     0.06000
H206        H  0.32560009  0.10507599  0.21799995     0.05800
O207        O  0.39706594  0.04932985  0.24484637    -0.73200
O208        O  0.39790987  0.45676406  0.25559734    -0.74200
O209        O  0.40571956  0.49763742  0.20562221    -0.62800
O210        O  0.40503463  0.00862931  0.29474654    -0.71200
O211        O  0.35341125  0.00790432  0.29637452    -0.70400
O212        O  0.35411630  0.49718955  0.20380388    -0.62000
O213        O  0.34628030  0.45788359  0.25557198    -0.74500
O214        O  0.34546968  0.04701405  0.24459870    -0.73300
Cu215      Cu  0.40355963  0.00310934  0.25018621     1.04600
Cu216      Cu  0.34769300  0.00247939  0.25006439     1.04300
C217        C  0.37008641  0.06258984  0.24388504     0.93000
C218        C  0.37123377  0.44287849  0.25660019     0.92100
C219        C  0.38103601  0.49649404  0.19028221     0.84300
C220        C  0.38014878  0.00919299  0.30999457     0.90600
O221        O  0.25541479  0.45787099  0.34643432    -0.73200
O222        O  0.24439350  0.04698818  0.34561955    -0.74200
O223        O  0.29619441  0.00791314  0.35357108    -0.62800
O224        O  0.20362703  0.49715025  0.35427865    -0.71200
O225        O  0.20544905  0.49760867  0.40588600    -0.70800
O226        O  0.29456345  0.00863405  0.40519861    -0.62000
O227        O  0.24465032  0.04931736  0.39721973    -0.74500
O228        O  0.25543512  0.45674863  0.39806826    -0.73300
Cu229      Cu  0.24988659  0.00246184  0.34784769     1.04600
Cu230      Cu  0.25000940  0.00309624  0.40371995     1.04300
C231        C  0.25644550  0.44286552  0.37138690     0.93000
C232        C  0.24368343  0.06256994  0.37023505     0.92100
C233        C  0.30981183  0.00920757  0.38031227     0.84300
C234        C  0.19010870  0.49645470  0.38120223     0.90600
C235        C  0.39375819  0.03260487  0.39393862     0.02900
C236        C  0.40233731  0.02647071  0.36259685    -0.13300
C237        C  0.38172521  0.00900309  0.34379909     0.00400
C238        C  0.35721492  0.99418634  0.35739423    -0.11800
C239        C  0.34361509  0.00902327  0.38189348     0.02900
C240        C  0.36241142  0.02649175  0.40250920    -0.11200
H241        H  0.42373265  0.03569494  0.35303917     0.08500
H242        H  0.34370167  0.47767141  0.34387906     0.06000
H243        H  0.35285085  0.03572912  0.42389995     0.05800
C244        C  0.22040250  0.14621233  0.35518941     0.02900
C245        C  0.22596616  0.15498747  0.38661539    -0.13300
C246        C  0.24332170  0.13455121  0.40582160     0.00400
C247        C  0.25863300  0.11023800  0.39242058    -0.11800
C248        C  0.24405820  0.09633249  0.36804762     0.02900
C249        C  0.22676199  0.11484780  0.34706714    -0.11200
H250        H  0.21647139  0.17635308  0.39588830     0.08500
H251        H  0.27512782  0.09690054  0.40612898     0.06000
H252        H  0.21781422  0.10505432  0.32573149     0.05800
O253        O  0.10400384  0.24489655  0.45424874    -0.73200
O254        O  0.10401896  0.25690596  0.04703601    -0.74200
O255        O  0.09644019  0.29569564  0.49457507    -0.62800
O256        O  0.09537348  0.20641637  0.00682958    -0.71200
O257        O  0.14694773  0.20405146  0.00657681    -0.70800
O258        O  0.14804129  0.29685640  0.49461254    -0.62000
O259        O  0.15561122  0.25639333  0.04520516    -0.74500
O260        O  0.15558845  0.24419103  0.45589481    -0.73300
Cu261      Cu  0.09784025  0.25101194  0.00067080     1.04600
Cu262      Cu  0.15367131  0.25035528  0.00055756     1.04300
C263        C  0.13085521  0.24346949  0.44058991     0.93000
C264        C  0.13083328  0.25757387  0.06060777     0.92100
C265        C  0.12136294  0.31078635  0.49365407     0.84300
C266        C  0.11994555  0.19077866  0.00774851     0.90600
C267        C  0.10668578  0.39633503  0.47422509     0.02900
C268        C  0.13814366  0.40476880  0.48023814    -0.13300
C269        C  0.15759283  0.38330009  0.49608040     0.00400
C270        C  0.14450453  0.35775341  0.50948798    -0.11800
C271        C  0.11995614  0.34474853  0.49440876     0.02900
C272        C  0.09876804  0.36444043  0.47851881    -0.11200
H273        H  0.14732571  0.42668762  0.47196123     0.08500
H274        H  0.15825206  0.34358037  0.02523639     0.06000
H275        H  0.07741212  0.35519143  0.46907606     0.05800
O276        O  0.00673503  0.20644313  0.09553395    -0.73200
O277        O  0.49442749  0.29571328  0.09659465    -0.74200
O278        O  0.04690353  0.25695214  0.10416864    -0.62800
O279        O  0.45413850  0.24489475  0.10415629    -0.71200
O280        O  0.45577997  0.24420630  0.15574596    -0.70800
O281        O  0.04507953  0.25644714  0.15576619    -0.62000
O282        O  0.49446950  0.29688516  0.14820051    -0.74500
O283        O  0.00648101  0.20409117  0.14711337    -0.73300
Cu284      Cu  0.00054965  0.25103445  0.09799562     1.04600
Cu285      Cu  0.00043788  0.25039055  0.15383140     1.04300
C286        C  0.00765637  0.19081257  0.12011083     0.93000
C287        C  0.49350387  0.31080808  0.12151852     0.92100
C288        C  0.06047655  0.25762442  0.13098308     0.84300
C289        C  0.44047941  0.24346899  0.13100842     0.90600
C290        C  0.47405366  0.39634766  0.10685467     0.02900
C291        C  0.47834747  0.36445439  0.09893093    -0.13300
C292        C  0.49425625  0.34476767  0.12010803     0.00400
C293        C  0.50935368  0.35777679  0.14464507    -0.11800
C294        C  0.49594317  0.38331622  0.15774885     0.02900
C295        C  0.48008298  0.40478278  0.13831207    -0.11200
H296        H  0.46889268  0.35520301  0.07757931     0.08500
H297        H  0.02511290  0.34360587  0.15838242     0.06000
H298        H  0.47180475  0.42669913  0.14750319     0.05800
C299        C  0.14542249  0.27842608  0.14554851     0.02900
C300        C  0.15369053  0.27315144  0.11387519    -0.13300
C301        C  0.13249101  0.25690895  0.09452896     0.00400
C302        C  0.10769348  0.24233591  0.10784346    -0.11800
C303        C  0.09439288  0.25694344  0.13263293     0.02900
C304        C  0.11374850  0.27318819  0.15382020    -0.11200
H305        H  0.17523768  0.28220749  0.10450513     0.08500
H306        H  0.09385954  0.22634729  0.09402122     0.06000
H307        H  0.10438596  0.28227012  0.17536271     0.05800
O308        O  0.29407901  0.09825220  0.49351572    -0.73200
O309        O  0.20521929  0.09700725  0.00547102    -0.74200
O310        O  0.24387707  0.10585675  0.45323314    -0.62800
O311        O  0.25521431  0.10541421  0.04594883    -0.71200
O312        O  0.25429561  0.15700916  0.04483224    -0.70800
O313        O  0.24339457  0.15744945  0.45521021    -0.62000
O314        O  0.20263015  0.14859250  0.00539528    -0.74500
O315        O  0.29533800  0.14987620  0.49437919    -0.73300
Cu316      Cu  0.24961999  0.09954597  0.99953896     1.04600
Cu317      Cu  0.24888410  0.15539338  0.99997844     1.04300
C318        C  0.30914160  0.12316878  0.49290589     0.93000
C319        C  0.18952186  0.12152109  0.00633610     0.92100
C320        C  0.24272025  0.13273596  0.43974022     0.84300
C321        C  0.25567375  0.13208459  0.05991510     0.90600
C322        C  0.39361410  0.10917557  0.47053302     0.02900
C323        C  0.40236165  0.14026221  0.47750755    -0.13300
C324        C  0.38146729  0.15906576  0.49484156     0.00400
C325        C  0.35634145  0.14561994  0.50871464    -0.11800
C326        C  0.34294129  0.12157205  0.49315158     0.02900
C327        C  0.36201331  0.10098227  0.47575972    -0.11200
H328        H  0.42409233  0.14966486  0.46893598     0.08500
H329        H  0.34251969  0.15901421  0.02518121     0.06000
H330        H  0.35250840  0.07986184  0.46599295     0.05800
O331        O  0.25692806  0.04569859  0.15509110    -0.73200
O332        O  0.24464255  0.45642735  0.15616269    -0.74200
O333        O  0.29723076  0.49488499  0.14754666    -0.62800
O334        O  0.20446127  0.00693139  0.14750908    -0.71200
O335        O  0.20630115  0.00642717  0.09591202    -0.70800
O336        O  0.29559840  0.49417977  0.09595678    -0.62000
O337        O  0.24490236  0.45407089  0.10458344    -0.74500
O338        O  0.25690771  0.04686002  0.10348492    -0.73300
Cu339      Cu  0.25081641  0.00101846  0.15369430     1.04600
Cu340      Cu  0.25094171  0.00036634  0.09785841     1.04300
C341        C  0.25786562  0.06078804  0.13016487     0.93000
C342        C  0.24372753  0.44079444  0.13158642     0.92100
C343        C  0.31089467  0.49345577  0.12069689     0.84300
C344        C  0.19089655  0.00760547  0.12069030     0.90600
C345        C  0.39596903  0.47208456  0.10685855     0.02900
C346        C  0.40424232  0.47927814  0.13796974    -0.13300
C347        C  0.38298870  0.49644114  0.15648232     0.00400
C348        C  0.35802051  0.01008614  0.14270733    -0.11800
C349        C  0.34481505  0.49404324  0.11886699     0.02900
C350        C  0.36429414  0.47675357  0.09845945    -0.11200
H351        H  0.42590711  0.47098593  0.14761637     0.08500
H352        H  0.34402868  0.02655297  0.15591232     0.06000
H353        H  0.35508225  0.46672557  0.07736854     0.05800
C354        C  0.27733134  0.14632483  0.14481885     0.02900
C355        C  0.27303117  0.11443376  0.15274473    -0.13300
C356        C  0.25712249  0.09474847  0.13156781     0.00400
C357        C  0.24203377  0.10775674  0.10702407    -0.11800
C358        C  0.25544160  0.13329600  0.09392252     0.02900
C359        C  0.27130251  0.15475954  0.11336065    -0.11200
H360        H  0.28248045  0.10518252  0.17409941     0.08500
H361        H  0.22627543  0.09358784  0.09328587     0.06000
H362        H  0.27957960  0.17667487  0.10417031     0.05800
O363        O  0.15494046  0.04568006  0.25707107    -0.73200
O364        O  0.15600354  0.45639799  0.24483557    -0.74200
O365        O  0.14735666  0.00688335  0.20461524    -0.62800
O366        O  0.14737712  0.49489018  0.29740820    -0.71200
O367        O  0.09579235  0.49419720  0.29576547    -0.70800
O368        O  0.09576443  0.00638211  0.20645101    -0.62000
O369        O  0.10442902  0.45404567  0.24509233    -0.74500
O370        O  0.10333950  0.04685395  0.25703577    -0.73300
Cu371      Cu  0.15353875  0.00099596  0.25098078     1.04600
Cu372      Cu  0.09770760  0.00035220  0.25109828     1.04300
C373        C  0.13001905  0.06077733  0.25799171     0.93000
C374        C  0.13143026  0.44076631  0.24392235     0.92100
C375        C  0.12054101  0.00755559  0.19104626     0.84300
C376        C  0.12052641  0.49347168  0.31106880     0.90600
C377        C  0.10668167  0.47206994  0.39613830     0.02900
C378        C  0.09827841  0.47676571  0.36446562    -0.13300
C379        C  0.11868859  0.49405726  0.34499300     0.00400
C380        C  0.14253940  0.01007412  0.35820409    -0.11800
C381        C  0.15631127  0.49640510  0.38316017     0.02900
C382        C  0.13779757  0.47923816  0.40440821    -0.11200
H383        H  0.07718421  0.46675310  0.35524946     0.08500
H384        H  0.15574669  0.02654385  0.34422091     0.06000
H385        H  0.14744541  0.47092698  0.42606611     0.05800
O386        O  0.00525605  0.14861586  0.20281297    -0.73200
O387        O  0.49426477  0.14986500  0.29553229    -0.74200
O388        O  0.04470388  0.15701498  0.25447253    -0.62800
O389        O  0.45508255  0.15745765  0.24359288    -0.71200
O390        O  0.45311095  0.10586479  0.24404576    -0.70800
O391        O  0.04582245  0.10541968  0.25536817    -0.62000
O392        O  0.49340142  0.09824168  0.29424452    -0.74500
O393        O  0.00533994  0.09702982  0.20538086    -0.73300
Cu394      Cu  0.99985050  0.15540130  0.24907467     1.04600
Cu395      Cu  0.99941568  0.09955353  0.24978313     1.04300
C396        C  0.00619888  0.12154817  0.18969263     0.93000
C397        C  0.49279369  0.12315110  0.30932210     0.92100
C398        C  0.05978749  0.13208856  0.25582793     0.84300
C399        C  0.43961643  0.13274417  0.24289627     0.90600
C400        C  0.47036878  0.10915926  0.39377801     0.02900
C401        C  0.47733466  0.14024813  0.40252514    -0.13300
C402        C  0.49469183  0.15903905  0.38164136     0.00400
C403        C  0.50859755  0.14557797  0.35653863    -0.11800
C404        C  0.49303850  0.12153700  0.34312308     0.02900
C405        C  0.47562501  0.10095618  0.36218134    -0.11200
H406        H  0.46874115  0.14966115  0.42424571     0.08500
H407        H  0.02507654  0.15896574  0.34272854     0.06000
H408        H  0.46586132  0.07983788  0.35266790     0.05800
C409        C  0.14469898  0.14632170  0.27742703     0.02900
C410        C  0.15261705  0.11442605  0.27312918    -0.13300
C411        C  0.13142966  0.09473937  0.25723512     0.00400
C412        C  0.10688338  0.10775094  0.24215459    -0.11800
C413        C  0.09379244  0.13329570  0.25556935     0.02900
C414        C  0.11324038  0.15475975  0.27141588    -0.11200
H415        H  0.17397180  0.10517208  0.28257317     0.08500
H416        H  0.09313596  0.09358110  0.22640485     0.06000
H417        H  0.10405643  0.17667724  0.27969906     0.05800
C418        C  0.03014680  0.10631511  0.10625307     0.02900
C419        C  0.02471801  0.13780709  0.09757774    -0.13300
C420        C  0.00705820  0.15694267  0.11796068     0.00400
C421        C  0.99131141  0.14342641  0.14194119    -0.11800
C422        C  0.00589784  0.11912141  0.15596017     0.02900
C423        C  0.02345836  0.09812802  0.13755185    -0.11200
H424        H  0.03452422  0.14716369  0.07636632     0.08500
H425        H  0.47460831  0.15712167  0.15517863     0.06000
H426        H  0.03238850  0.07678160  0.14738219     0.05800
C427        C  0.10595737  0.02843182  0.10611526     0.02900
C428        C  0.09768512  0.02314865  0.13778503    -0.13300
C429        C  0.11887921  0.00689056  0.15712591     0.00400
C430        C  0.14367359  0.99231089  0.14380738    -0.11800
C431        C  0.15698111  0.00692696  0.11902844     0.02900
C432        C  0.13763159  0.02318724  0.09784530    -0.11200
H433        H  0.07613919  0.03221015  0.14715699     0.08500
H434        H  0.15750683  0.47631430  0.15762686     0.06000
H435        H  0.14699868  0.03227544  0.07630847     0.05800
C436        C  0.10608811  0.10629720  0.03028310     0.02900
C437        C  0.09740909  0.13778447  0.02482883    -0.13300
C438        C  0.11778957  0.15690741  0.00715612     0.00400
C439        C  0.14177139  0.14337844  0.99142033    -0.11800
C440        C  0.15579235  0.11908708  0.00602978     0.02900
C441        C  0.13738708  0.09810740  0.02360537    -0.11200
H442        H  0.07619772  0.14714830  0.03462812     0.08500
H443        H  0.15500907  0.15706253  0.47471031     0.06000
H444        H  0.14721960  0.07676967  0.03255387     0.05800
C445        C  0.20852058  0.20997658  0.29158058     0.86200
C446        C  0.18593103  0.22748848  0.31379621    -0.54000
C447        C  0.16721139  0.20895345  0.33202354     0.09200
C448        C  0.17233122  0.17392260  0.32622155     0.20100
C449        C  0.22593328  0.18732255  0.31360545    -0.54700
C450        C  0.20734099  0.16868316  0.33182023     0.09300
C451        C  0.18663419  0.18821908  0.27281082    -0.54300
C452        C  0.16764521  0.16930535  0.29081532     0.09800
H453        H  0.18524435  0.25266337  0.31530587     0.14400
H454        H  0.15721466  0.15883988  0.34077238     0.00100
H455        H  0.25110478  0.18653979  0.31501267     0.14700
H456        H  0.18615831  0.18772472  0.24762193     0.14400
C457        C  0.29146638  0.20998135  0.20864561     0.86200
C458        C  0.27270688  0.18822442  0.18675192    -0.54000
C459        C  0.29071658  0.16931094  0.16776508     0.09200
C460        C  0.32611943  0.17392677  0.17246221     0.20100
C461        C  0.31348652  0.18732898  0.22606551    -0.54700
C462        C  0.33170880  0.16868971  0.20747739     0.09300
C463        C  0.31368357  0.22749313  0.18606178    -0.54300
C464        C  0.33191773  0.20895790  0.16734573     0.09800
H465        H  0.24752039  0.18772925  0.18627021     0.14400
H466        H  0.34067465  0.15884325  0.15734750     0.00100
H467        H  0.31488520  0.18654753  0.25123959     0.14700
H468        H  0.31518883  0.25266807  0.18537599     0.14400
C469        C  0.29427717  0.29558709  0.29440706     0.86200
C470        C  0.31636034  0.27765982  0.31648420    -0.54000
C471        C  0.33485942  0.29600552  0.33498384     0.09200
C472        C  0.32969728  0.33118088  0.32982979     0.20100
C473        C  0.27623920  0.31772657  0.31653994    -0.54700
C474        C  0.29449975  0.33632416  0.33504850     0.09300
C475        C  0.31640164  0.31773070  0.27636731    -0.54300
C476        C  0.33490926  0.33632813  0.29462982     0.09800
H477        H  0.31723391  0.25246721  0.31735498     0.14400
H478        H  0.34455689  0.34609401  0.34469160     0.00100
H479        H  0.25104520  0.31855308  0.31744671     0.14700
H480        H  0.31730461  0.31855869  0.25117114     0.14400
C481        C  0.20894244  0.29259166  0.20907148     0.86200
C482        C  0.18716097  0.27383111  0.18727757    -0.54000
C483        C  0.16830675  0.29185085  0.16843002     0.09200
C484        C  0.17298847  0.32724749  0.17313227     0.20100
C485        C  0.22651040  0.31470530  0.18648775    -0.54700
C486        C  0.20802416  0.33293142  0.16790058     0.09300
C487        C  0.18634970  0.31468941  0.22665202    -0.54300
C488        C  0.16775474  0.33291576  0.20817422     0.09800
H489        H  0.18662114  0.24864424  0.18672734     0.14400
H490        H  0.15794375  0.34179523  0.15809379     0.00100
H491        H  0.25168836  0.31614306  0.18569539     0.14700
H492        H  0.18555889  0.31611856  0.25183274     0.14400
C493        C  0.27262795  0.27379192  0.27275755     0.86200
C494        C  0.25079629  0.29187667  0.25092580    -0.54000
C495        C  0.23177279  0.27459507  0.23189722     0.09200
C496        C  0.23713922  0.23827952  0.23725871     0.20100
C497        C  0.25066272  0.25188435  0.29086468    -0.54700
C498        C  0.23159267  0.23284974  0.27358838     0.09300
C499        C  0.29073756  0.25188732  0.25078972    -0.54300
C500        C  0.27346740  0.23285282  0.23171546     0.09800
H501        H  0.25049150  0.31710226  0.25062580     0.14400
H502        H  0.22230962  0.22346563  0.22242365     0.00100
H503        H  0.25027783  0.25157370  0.31608951     0.14700
H504        H  0.31596036  0.25157771  0.25040684     0.14400
C505        C  0.04243445  0.04260871  0.54259966     0.86200
C506        C  0.02486480  0.06471945  0.56518895    -0.54000
C507        C  0.04334987  0.08294370  0.58377683     0.09200
C508        C  0.07838612  0.07726055  0.57854023     0.20100
C509        C  0.06502128  0.06470902  0.52502008    -0.54700
C510        C  0.08361467  0.08293372  0.54349865     0.09300
C511        C  0.06422106  0.02384584  0.56438755    -0.54300
C512        C  0.08307416  0.04186286  0.58323553     0.09800
H513        H  0.99968663  0.06615694  0.56598424     0.14400
H514        H  0.09343013  0.09180591  0.59357966     0.00100
H515        H  0.06581054  0.06613972  0.49983943     0.14700
H516        H  0.06476429  0.99865892  0.56493458     0.14400
C517        C  0.45709948  0.04560969  0.95727027     0.86200
C518        C  0.47513637  0.06774450  0.93513694    -0.54000
C519        C  0.45687543  0.08634280  0.91662793     0.09200
C520        C  0.42167731  0.08120301  0.92184567     0.20100
C521        C  0.43497441  0.06775704  0.97530921    -0.54700
C522        C  0.41646601  0.08635466  0.95704552     0.09300
C523        C  0.43501809  0.02768222  0.93519542    -0.54300
C524        C  0.41651675  0.04602657  0.91669545     0.09800
H525        H  0.50033042  0.06856801  0.93423064     0.14400
H526        H  0.40681653  0.09611603  0.90698285     0.00100
H527        H  0.43407071  0.06858659  0.00050530     0.14700
H528        H  0.43414636  0.00248956  0.93432713     0.14400
C529        C  0.45991191  0.46000656  0.54303440     0.86200
C530        C  0.47867458  0.43824541  0.56492299    -0.54000
C531        C  0.46066740  0.41933446  0.58391058     0.09200
C532        C  0.42526479  0.42395592  0.57922057     0.20100
C533        C  0.43788791  0.43735860  0.52561657    -0.54700
C534        C  0.41966898  0.41872150  0.54420686     0.09300
C535        C  0.43769760  0.47752104  0.56562426    -0.54300
C536        C  0.41946739  0.45898671  0.58434242     0.09800
H537        H  0.00386124  0.43774610  0.56540133     0.14400
H538        H  0.41071282  0.40887361  0.59433661     0.00100
H539        H  0.43648570  0.43657716  0.50044263     0.14700
H540        H  0.43619236  0.00269944  0.56630716     0.14400
C541        C  0.04285790  0.45999554  0.96008470     0.86200
C542        C  0.06544333  0.47750729  0.93786687    -0.54000
C543        C  0.08416426  0.45897197  0.91963612     0.09200
C544        C  0.07904790  0.42394090  0.92543619     0.20100
C545        C  0.02544557  0.43734235  0.93805977    -0.54700
C546        C  0.04403785  0.41870154  0.91984162     0.09300
C547        C  0.06474927  0.43823649  0.97884971    -0.54300
C548        C  0.08373828  0.41932270  0.96084142     0.09800
H549        H  0.06612857  0.00268023  0.93635564     0.14400
H550        H  0.09416493  0.40885754  0.91088329     0.00100
H551        H  0.00027395  0.43655961  0.93665695     0.14700
H552        H  0.06522756  0.43774042  0.50403849     0.14400
C553        C  0.47874911  0.02381360  0.97891778     0.86200
C554        C  0.00058050  0.04189635  0.50074785    -0.54000
C555        C  0.01960593  0.02461296  0.51977436     0.09200
C556        C  0.01423913  0.48829710  0.51441643     0.20100
C557        C  0.00071362  0.00190376  0.96080758    -0.54700
C558        C  0.01978454  0.48286837  0.97808457     0.09300
C559        C  0.46064120  0.00191240  0.50088611    -0.54300
C560        C  0.47791044  0.48287433  0.51996298     0.09800
H561        H  0.00088321  0.06712195  0.50104880     0.14400
H562        H  0.02907105  0.47348135  0.52924945     0.00100
H563        H  0.00109656  0.00159397  0.93558270     0.14700
H564        H  0.43541835  0.00160724  0.50127108     0.14400
C565        C  0.35775688  0.35914982  0.78114158     0.02900
C566        C  0.34900444  0.39023845  0.77417629    -0.13300
C567        C  0.36989249  0.40904262  0.75683987     0.00400
C568        C  0.39501293  0.39559548  0.74295364    -0.11800
C569        C  0.40842402  0.37155184  0.75851569     0.02900
C570        C  0.38935951  0.35095858  0.77590873    -0.11200
H571        H  0.32727605  0.39964208  0.78275713     0.08500
H572        H  0.40882811  0.40899114  0.72648506     0.06000
H573        H  0.39887143  0.32983890  0.78567310     0.05800
C574        C  0.28100912  0.35914518  0.85789895     0.02900
C575        C  0.27576666  0.35095210  0.88950076    -0.13300
C576        C  0.25835984  0.37154164  0.90856095     0.00400
C577        C  0.24279233  0.39557754  0.89514312    -0.11800
C578        C  0.25669096  0.40903129  0.87003458     0.02900
C579        C  0.27404107  0.39023322  0.84914852    -0.11200
H580        H  0.28553430  0.32983513  0.89901561     0.08500
H581        H  0.22631436  0.40896931  0.90895354     0.06000
H582        H  0.28262869  0.39964048  0.82742411     0.05800
C583        C  0.22122582  0.35630503  0.64542923     0.02900
C584        C  0.22666733  0.38779103  0.65411585    -0.13300
C585        C  0.24432924  0.40692433  0.63373623     0.00400
C586        C  0.26006683  0.39340745  0.60974795    -0.11800
C587        C  0.24546488  0.36911875  0.59572087     0.02900
C588        C  0.22790163  0.34812702  0.61412462    -0.11200
H589        H  0.21686760  0.39714559  0.67533221     0.08500
H590        H  0.27677224  0.40709817  0.59651223     0.06000
H591        H  0.21896207  0.32678888  0.60428778     0.05800
C592        C  0.35541584  0.22205935  0.64483456     0.02900
C593        C  0.38708726  0.22673947  0.65323939    -0.13300
C594        C  0.40655804  0.24404580  0.63284102     0.00400
C595        C  0.39334415  0.26008701  0.60899974    -0.11800
C596        C  0.36838414  0.24644165  0.59522320     0.02900
C597        C  0.34714011  0.22926258  0.61372671    -0.11200
H598        H  0.39630264  0.21670892  0.67432783     0.08500
H599        H  0.40732765  0.27656251  0.59580026     0.06000
H600        H  0.32547957  0.22096768  0.60407587     0.05800
O601        O  0.20556996  0.35542867  0.99629129    -0.73200
O602        O  0.29827666  0.35588488  0.50765491    -0.74200
O603        O  0.24603024  0.34703903  0.54629610    -0.62800
O604        O  0.25801020  0.34825270  0.95744082    -0.71200
O605        O  0.25711986  0.39987541  0.95615203    -0.70800
O606        O  0.24611074  0.39862456  0.54887450    -0.62000
O607        O  0.29629061  0.40747755  0.50810098    -0.74500
O608        O  0.20667303  0.40702390  0.99720480    -0.73300
Cu609      Cu  0.25197557  0.34956618  0.50189803     1.04600
Cu610      Cu  0.25152437  0.40541419  0.50261161     1.04300
C611        C  0.19159762  0.38209624  0.99583401     0.93000
C612        C  0.31176368  0.38276608  0.50880199     0.92100
C613        C  0.24516535  0.37155443  0.56198906     0.84300
C614        C  0.25860577  0.37316079  0.94236253     0.90600
O615        O  0.40590987  0.29703131  0.50712015    -0.73200
O616        O  0.40508688  0.20789949  0.99612935    -0.74200
O617        O  0.39796900  0.25793438  0.95533327    -0.62800
O618        O  0.39725772  0.24719877  0.54790405    -0.71200
O619        O  0.34565454  0.24766544  0.54608299    -0.70800
O620        O  0.34634554  0.25866915  0.95695321    -0.62000
O621        O  0.35345727  0.20679600  0.99610179    -0.74500
O622        O  0.35431398  0.29936038  0.50686288    -0.73300
Cu623      Cu  0.40368195  0.25249711  0.50164222     1.04600
Cu624      Cu  0.34781602  0.25314267  0.50151465     1.04300
C625        C  0.38129433  0.31261373  0.50782830     0.93000
C626        C  0.38013122  0.19290224  0.99509593     0.92100
C627        C  0.37123383  0.25922735  0.94170863     0.84300
C628        C  0.37033744  0.24650693  0.56142377     0.90600
C629        C  0.39630650  0.39625041  0.53113847     0.02900
C630        C  0.40444169  0.36489257  0.52476273    -0.13300
C631        C  0.38347162  0.34637778  0.50745773     0.00400
C632        C  0.35908896  0.36027983  0.49289363    -0.11800
C633        C  0.34568062  0.38458403  0.50821383     0.02900
C634        C  0.36487879  0.40501811  0.52557861    -0.11200
H635        H  0.42578050  0.35510262  0.53370557     0.08500
H636        H  0.34538504  0.34694440  0.97639480     0.06000
H637        H  0.35559933  0.42637793  0.53508039     0.05800
C638        C  0.35761852  0.28259036  0.85774569     0.02900
C639        C  0.38896583  0.27647520  0.84917612    -0.13300
C640        C  0.40777050  0.25902698  0.86980257     0.00400
C641        C  0.39417940  0.24420897  0.89431593    -0.11800
C642        C  0.36966432  0.25903017  0.90790294     0.02900
C643        C  0.34904455  0.27647999  0.88909375    -0.11200
H644        H  0.39852100  0.28569791  0.82777748     0.08500
H645        H  0.40770070  0.22770178  0.90784087     0.06000
H646        H  0.32764693  0.28570751  0.89864643     0.05800
C647        C  0.14528159  0.35628323  0.72139052     0.02900
C648        C  0.15396441  0.38776674  0.72684947    -0.13300
C649        C  0.13358366  0.40689548  0.74451935     0.00400
C650        C  0.10959568  0.39337512  0.76024871    -0.11800
C651        C  0.09557411  0.36908934  0.74563474     0.02900
C652        C  0.11397991  0.34810346  0.72806168    -0.11200
H653        H  0.17517875  0.39712429  0.71705420     0.08500
H654        H  0.09635695  0.40706323  0.77695689     0.06000
H655        H  0.10414613  0.32676894  0.71911043     0.05800
O656        O  0.45729640  0.34824653  0.75814884    -0.73200
O657        O  0.04615176  0.34701415  0.74619336    -0.74200
O658        O  0.00749609  0.35585948  0.79843414    -0.62800
O659        O  0.49616108  0.35542572  0.70571662    -0.71200
O660        O  0.49706496  0.40702071  0.70684263    -0.70800
O661        O  0.00796404  0.40745228  0.79646039    -0.62000
O662        O  0.04873189  0.39859934  0.74627634    -0.74500
O663        O  0.45601769  0.39987008  0.75729184    -0.73300
Cu664      Cu  0.00175368  0.34954991  0.75212624     1.04600
Cu665      Cu  0.00247381  0.40539819  0.75169409     1.04300
C666        C  0.44222393  0.37315911  0.75876195     0.93000
C667        C  0.06184466  0.37152752  0.74533069     0.92100
C668        C  0.00864894  0.38273880  0.81192842     0.84300
C669        C  0.49569936  0.38209835  0.69175525     0.90600
O670        O  0.45681623  0.25864215  0.84648464    -0.73200
O671        O  0.04593206  0.24761316  0.84578117    -0.74200
O672        O  0.49595059  0.20675494  0.85360589    -0.62800
O673        O  0.00672786  0.29932442  0.85445594    -0.71200
O674        O  0.00699643  0.29699773  0.90605579    -0.70800
O675        O  0.49598010  0.20788019  0.90523974    -0.62000
O676        O  0.04776427  0.24715450  0.89738830    -0.74500
O677        O  0.45519805  0.25792364  0.89811253    -0.73300
Cu678      Cu  0.00137086  0.25310284  0.84795340     1.04600
Cu679      Cu  0.00150564  0.25246989  0.90382541     1.04300
C680        C  0.44157384  0.25921402  0.87137477     0.93000
C681        C  0.06127699  0.24645859  0.87046215     0.92100
C682        C  0.49494235  0.19287350  0.88028760     0.84300
C683        C  0.00770046  0.31257884  0.88144016     0.90600
C684        C  0.03097626  0.39622538  0.89647661     0.02900
C685        C  0.02540987  0.40499453  0.86504937    -0.13300
C686        C  0.00805524  0.38455566  0.84584699     0.00400
C687        C  0.99274765  0.36024591  0.85925177    -0.11800
C688        C  0.00732473  0.34634297  0.88362567     0.02900
C689        C  0.02462044  0.36486156  0.90460312    -0.11200
H690        H  0.03490145  0.42635808  0.85577280     0.08500
H691        H  0.47625232  0.34690852  0.84554604     0.06000
H692        H  0.03357021  0.35507106  0.92593962     0.05800
C693        C  0.14469615  0.22205319  0.85552277     0.02900
C694        C  0.11358212  0.22923018  0.84725243    -0.13300
C695        C  0.09507308  0.24640697  0.86849839     0.00400
C696        C  0.10884729  0.26007749  0.89344788    -0.11800
C697        C  0.13269485  0.24405144  0.90666559     0.02900
C698        C  0.15310137  0.22674992  0.88719466    -0.11200
H699        H  0.10393220  0.22091860  0.82559596     0.08500
H700        H  0.09564180  0.27655291  0.90742932     0.06000
H701        H  0.17419450  0.21673193  0.89641119     0.05800
C702        C  0.35507293  0.14621994  0.72055125     0.02900
C703        C  0.38649888  0.15498762  0.72611102    -0.13300
C704        C  0.40569930  0.13455831  0.74348198     0.00400
C705        C  0.39229600  0.11025552  0.75880457    -0.11800
C706        C  0.36791072  0.09635405  0.74424790     0.02900
C707        C  0.34693916  0.11486609  0.72693854    -0.11200
H708        H  0.39577563  0.17634465  0.71660493     0.08500
H709        H  0.40600305  0.09692165  0.77530363     0.06000
H710        H  0.32560004  0.10507611  0.71799999     0.05800
O711        O  0.39706595  0.04932990  0.74484632    -0.73200
O712        O  0.39790988  0.45676406  0.75559731    -0.74200
O713        O  0.40571957  0.49763739  0.70562218    -0.62800
O714        O  0.40503466  0.00862943  0.79474658    -0.71200
O715        O  0.35341128  0.00790428  0.79637452    -0.70400
O716        O  0.35411631  0.49718953  0.70380389    -0.62000
O717        O  0.34628031  0.45788359  0.75557201    -0.74500
O718        O  0.34546970  0.04701404  0.74459866    -0.73300
Cu719      Cu  0.40355964  0.00310937  0.75018620     1.04600
Cu720      Cu  0.34769302  0.00247937  0.75006436     1.04300
C721        C  0.37008640  0.06258987  0.74388499     0.93000
C722        C  0.37123378  0.44287849  0.75660017     0.92100
C723        C  0.38103601  0.49649401  0.69028220     0.84300
C724        C  0.38014880  0.00919302  0.80999458     0.90600
O725        O  0.25541480  0.45787097  0.84643430    -0.73200
O726        O  0.24439351  0.04698820  0.84561953    -0.74200
O727        O  0.29619441  0.00791312  0.85357105    -0.62800
O728        O  0.20362703  0.49715027  0.85427871    -0.71200
O729        O  0.20544906  0.49760868  0.90588608    -0.70800
O730        O  0.29456346  0.00863403  0.90519858    -0.62000
O731        O  0.24465033  0.04931741  0.89721971    -0.74500
O732        O  0.25543513  0.45674860  0.89806824    -0.73300
Cu733      Cu  0.24988660  0.00246182  0.84784766     1.04600
Cu734      Cu  0.25000941  0.00309624  0.90371991     1.04300
C735        C  0.25644551  0.44286550  0.87138687     0.93000
C736        C  0.24368345  0.06256998  0.87023501     0.92100
C737        C  0.30981182  0.00920759  0.88031224     0.84300
C738        C  0.19010870  0.49645475  0.88120230     0.90600
C739        C  0.39375821  0.03260487  0.89393862     0.02900
C740        C  0.40233734  0.02647070  0.86259686    -0.13300
C741        C  0.38172522  0.00900311  0.84379910     0.00400
C742        C  0.35721490  0.99418643  0.85739423    -0.11800
C743        C  0.34361507  0.00902338  0.88189343     0.02900
C744        C  0.36241144  0.02649179  0.90250920    -0.11200
H745        H  0.42373269  0.03569490  0.85303919     0.08500
H746        H  0.34370169  0.47767137  0.84387905     0.06000
H747        H  0.35285088  0.03572912  0.92390000     0.05800
C748        C  0.22040250  0.14621235  0.85518939     0.02900
C749        C  0.22596616  0.15498749  0.88661535    -0.13300
C750        C  0.24332174  0.13455126  0.90582157     0.00400
C751        C  0.25863300  0.11023804  0.89242054    -0.11800
C752        C  0.24405823  0.09633253  0.86804757     0.02900
C753        C  0.22676200  0.11484781  0.84706709    -0.11200
H754        H  0.21647135  0.17635311  0.89588827     0.08500
H755        H  0.27512783  0.09690057  0.90612896     0.06000
H756        H  0.21781426  0.10505433  0.82573147     0.05800
O757        O  0.10400384  0.24489654  0.95424874    -0.73200
O758        O  0.10401897  0.25690592  0.54703598    -0.74200
O759        O  0.09644020  0.29569563  0.99457502    -0.62800
O760        O  0.09537347  0.20641636  0.50682953    -0.71200
O761        O  0.14694773  0.20405149  0.50657684    -0.70800
O762        O  0.14804130  0.29685638  0.99461261    -0.62000
O763        O  0.15561124  0.25639333  0.54520517    -0.74500
O764        O  0.15558845  0.24419103  0.95589478    -0.73300
Cu765      Cu  0.09784025  0.25101194  0.50067078     1.04600
Cu766      Cu  0.15367131  0.25035530  0.50055758     1.04300
C767        C  0.13085521  0.24346951  0.94058990     0.93000
C768        C  0.13083328  0.25757384  0.56060776     0.92100
C769        C  0.12136296  0.31078634  0.99365409     0.84300
C770        C  0.11994555  0.19077867  0.50774848     0.90600
C771        C  0.10668579  0.39633501  0.97422505     0.02900
C772        C  0.13814367  0.40476877  0.98023810    -0.13300
C773        C  0.15759284  0.38330007  0.99608037     0.00400
C774        C  0.14450452  0.35775342  0.00948798    -0.11800
C775        C  0.11995616  0.34474851  0.99440874     0.02900
C776        C  0.09876806  0.36444041  0.97851877    -0.11200
H777        H  0.14732572  0.42668759  0.97196119     0.08500
H778        H  0.15825208  0.34358034  0.52523635     0.06000
H779        H  0.07741214  0.35519139  0.96907602     0.05800
O780        O  0.00673507  0.20644318  0.59553397    -0.73200
O781        O  0.49442748  0.29571326  0.59659464    -0.74200
O782        O  0.04690352  0.25695226  0.60416869    -0.62800
O783        O  0.45413853  0.24489472  0.60415639    -0.71200
O784        O  0.45577996  0.24420628  0.65574603    -0.70800
O785        O  0.04507955  0.25644710  0.65576622    -0.62000
O786        O  0.49446952  0.29688514  0.64820049    -0.74500
O787        O  0.00648102  0.20409118  0.64711338    -0.73300
Cu788      Cu  0.00054965  0.25103448  0.59799573     1.04600
Cu789      Cu  0.00043789  0.25039053  0.65383142     1.04300
C790        C  0.00765638  0.19081260  0.62011084     0.93000
C791        C  0.49350388  0.31080806  0.62151850     0.92100
C792        C  0.06047657  0.25762444  0.63098310     0.84300
C793        C  0.44047941  0.24346897  0.63100849     0.90600
C794        C  0.47405368  0.39634763  0.60685464     0.02900
C795        C  0.47834748  0.36445436  0.59893091    -0.13300
C796        C  0.49425627  0.34476765  0.62010801     0.00400
C797        C  0.50935368  0.35777677  0.64464508    -0.11800
C798        C  0.49594316  0.38331619  0.65774885     0.02900
C799        C  0.48008300  0.40478276  0.63831205    -0.11200
H800        H  0.46889270  0.35520298  0.57757928     0.08500
H801        H  0.02511286  0.34360582  0.65838240     0.06000
H802        H  0.47180476  0.42669910  0.64750315     0.05800
C803        C  0.14542250  0.27842606  0.64554847     0.02900
C804        C  0.15369054  0.27315141  0.61387515    -0.13300
C805        C  0.13249101  0.25690892  0.59452894     0.00400
C806        C  0.10769347  0.24233589  0.60784343    -0.11800
C807        C  0.09439289  0.25694342  0.63263291     0.02900
C808        C  0.11374852  0.27318816  0.65382017    -0.11200
H809        H  0.17523769  0.28220747  0.60450509     0.08500
H810        H  0.09385951  0.22634729  0.59402119     0.06000
H811        H  0.10438598  0.28227009  0.67536268     0.05800
O812        O  0.29407899  0.09825222  0.99351583    -0.73200
O813        O  0.20521930  0.09700723  0.50547101    -0.74200
O814        O  0.24387708  0.10585674  0.95323310    -0.62800
O815        O  0.25521432  0.10541419  0.54594884    -0.71200
O816        O  0.25429562  0.15700913  0.54483225    -0.70800
O817        O  0.24339457  0.15744944  0.95521020    -0.62000
O818        O  0.20263015  0.14859248  0.50539526    -0.74500
O819        O  0.29533799  0.14987622  0.99437914    -0.73300
Cu820      Cu  0.24962000  0.09954597  0.49953894     1.04600
Cu821      Cu  0.24888410  0.15539338  0.49997845     1.04300
C822        C  0.30914159  0.12316880  0.99290593     0.93000
C823        C  0.18952186  0.12152106  0.50633607     0.92100
C824        C  0.24272026  0.13273597  0.93974019     0.84300
C825        C  0.25567376  0.13208457  0.55991512     0.90600
C826        C  0.39361409  0.10917556  0.97053302     0.02900
C827        C  0.40236164  0.14026221  0.97750754    -0.13300
C828        C  0.38146731  0.15906577  0.99484158     0.00400
C829        C  0.35634143  0.14561996  0.00871467    -0.11800
C830        C  0.34294129  0.12157203  0.99315164     0.02900
C831        C  0.36201329  0.10098228  0.97575974    -0.11200
H832        H  0.42409233  0.14966483  0.96893596     0.08500
H833        H  0.34251967  0.15901421  0.52518123     0.06000
H834        H  0.35250836  0.07986187  0.96599295     0.05800
O835        O  0.25692807  0.04569857  0.65509106    -0.73200
O836        O  0.24464257  0.45642735  0.65616273    -0.74200
O837        O  0.29723079  0.49488496  0.64754672    -0.62800
O838        O  0.20446130  0.00693136  0.64750907    -0.71200
O839        O  0.20630115  0.00642715  0.59591200    -0.70800
O840        O  0.29559838  0.49417973  0.59595684    -0.62000
O841        O  0.24490234  0.45407087  0.60458347    -0.74500
O842        O  0.25690772  0.04686006  0.60348489    -0.73300
Cu843      Cu  0.25081642  0.00101844  0.65369427     1.04600
Cu844      Cu  0.25094172  0.00036633  0.59785837     1.04300
C845        C  0.25786565  0.06078806  0.63016486     0.93000
C846        C  0.24372753  0.44079443  0.63158646     0.92100
C847        C  0.31089468  0.49345573  0.62069693     0.84300
C848        C  0.19089656  0.00760544  0.62069029     0.90600
C849        C  0.39596904  0.47208453  0.60685853     0.02900
C850        C  0.40424232  0.47927812  0.63796970    -0.13300
C851        C  0.38298871  0.49644111  0.65648230     0.00400
C852        C  0.35802055  0.01008617  0.64270735    -0.11800
C853        C  0.34481506  0.49404322  0.61886698     0.02900
C854        C  0.36429413  0.47675353  0.59845940    -0.11200
H855        H  0.42590714  0.47098587  0.64761633     0.08500
H856        H  0.34402871  0.02655301  0.65591238     0.06000
H857        H  0.35508227  0.46672553  0.57736857     0.05800
C858        C  0.27733133  0.14632483  0.64481890     0.02900
C859        C  0.27303119  0.11443375  0.65274484    -0.13300
C860        C  0.25712250  0.09474849  0.63156786     0.00400
C861        C  0.24203379  0.10775678  0.60702415    -0.11800
C862        C  0.25544163  0.13329599  0.59392255     0.02900
C863        C  0.27130250  0.15475952  0.61336072    -0.11200
H864        H  0.28248043  0.10518257  0.67409943     0.08500
H865        H  0.22627538  0.09358785  0.59328594     0.06000
H866        H  0.27957963  0.17667491  0.60417037     0.05800
O867        O  0.15494047  0.04568008  0.75707104    -0.73200
O868        O  0.15600354  0.45639805  0.74483572    -0.74200
O869        O  0.14735666  0.00688338  0.70461521    -0.62800
O870        O  0.14737714  0.49489022  0.79740825    -0.71200
O871        O  0.09579237  0.49419725  0.79576547    -0.70800
O872        O  0.09576441  0.00638208  0.70645097    -0.62000
O873        O  0.10442902  0.45404573  0.74509227    -0.74500
O874        O  0.10333949  0.04685394  0.75703574    -0.73300
Cu875      Cu  0.15353875  0.00099600  0.75098075     1.04600
Cu876      Cu  0.09770749  0.00035217  0.75109825     1.04300
C877        C  0.13001904  0.06077732  0.75799168     0.93000
C878        C  0.13143026  0.44076637  0.74392236     0.92100
C879        C  0.12054100  0.00755558  0.69104623     0.84300
C880        C  0.12052643  0.49347175  0.81106883     0.90600
C881        C  0.10668169  0.47206992  0.89613832     0.02900
C882        C  0.09827846  0.47676571  0.86446563    -0.13300
C883        C  0.11868860  0.49405731  0.84499305     0.00400
C884        C  0.14253945  0.01007416  0.85820406    -0.11800
C885        C  0.15631127  0.49640515  0.88316026     0.02900
C886        C  0.13779759  0.47923814  0.90440823    -0.11200
H887        H  0.07718427  0.46675308  0.85524946     0.08500
H888        H  0.15574675  0.02654384  0.84422088     0.06000
H889        H  0.14744544  0.47092689  0.92606615     0.05800
O890        O  0.00525608  0.14861591  0.70281293    -0.73200
O891        O  0.49426475  0.14986503  0.79553232    -0.74200
O892        O  0.04470389  0.15701497  0.75447264    -0.62800
O893        O  0.45508256  0.15745763  0.74359284    -0.71200
O894        O  0.45311095  0.10586479  0.74404575    -0.70800
O895        O  0.04582246  0.10541968  0.75536812    -0.62000
O896        O  0.49340144  0.09824174  0.79424456    -0.74500
O897        O  0.00533994  0.09702990  0.70538084    -0.73300
Cu898      Cu  0.99985052  0.15540131  0.74907468     1.04600
Cu899      Cu  0.99941569  0.09955363  0.74978313     1.04300
C900        C  0.00619888  0.12154823  0.68969260     0.93000
C901        C  0.49279368  0.12315114  0.80932214     0.92100
C902        C  0.05978751  0.13208855  0.75582795     0.84300
C903        C  0.43961643  0.13274416  0.74289627     0.90600
C904        C  0.47036878  0.10915932  0.89377806     0.02900
C905        C  0.47733465  0.14024822  0.90252515    -0.13300
C906        C  0.49469184  0.15903910  0.88164134     0.00400
C907        C  0.50859760  0.14557800  0.85653864    -0.11800
C908        C  0.49303851  0.12153703  0.84312313     0.02900
C909        C  0.47562501  0.10095621  0.86218140    -0.11200
H910        H  0.46874116  0.14966131  0.92424567     0.08500
H911        H  0.02507656  0.15896570  0.84272855     0.06000
H912        H  0.46586133  0.07983792  0.85266800     0.05800
C913        C  0.14469898  0.14632166  0.77742710     0.02900
C914        C  0.15261705  0.11442600  0.77312927    -0.13300
C915        C  0.13142967  0.09473936  0.75723513     0.00400
C916        C  0.10688339  0.10775092  0.74215458    -0.11800
C917        C  0.09379245  0.13329569  0.75556937     0.02900
C918        C  0.11324039  0.15475969  0.77141595    -0.11200
H919        H  0.17397174  0.10517204  0.78257328     0.08500
H920        H  0.09313602  0.09358113  0.72640484     0.06000
H921        H  0.10405642  0.17667720  0.77969915     0.05800
C922        C  0.03014681  0.10631514  0.60625309     0.02900
C923        C  0.02471799  0.13780712  0.59757775    -0.13300
C924        C  0.00705819  0.15694270  0.61796068     0.00400
C925        C  0.99131133  0.14342645  0.64194119    -0.11800
C926        C  0.00589778  0.11912143  0.65596015     0.02900
C927        C  0.02345832  0.09812805  0.63755185    -0.11200
H928        H  0.03452420  0.14716370  0.57636634     0.08500
H929        H  0.47460838  0.15712171  0.65517863     0.06000
H930        H  0.03238849  0.07678164  0.64738219     0.05800
C931        C  0.10595738  0.02843179  0.60611524     0.02900
C932        C  0.09768512  0.02314862  0.63778501    -0.13300
C933        C  0.11887921  0.00689052  0.65712590     0.00400
C934        C  0.14367359  0.99231086  0.64380737    -0.11800
C935        C  0.15698113  0.00692696  0.61902846     0.02900
C936        C  0.13763161  0.02318721  0.59784529    -0.11200
H937        H  0.07613919  0.03221013  0.64715695     0.08500
H938        H  0.15750684  0.47631437  0.65762692     0.06000
H939        H  0.14699871  0.03227538  0.57630847     0.05800
C940        C  0.10608812  0.10629719  0.53028309     0.02900
C941        C  0.09740910  0.13778445  0.52482880    -0.13300
C942        C  0.11778960  0.15690742  0.50715612     0.00400
C943        C  0.14177139  0.14337841  0.49142035    -0.11800
C944        C  0.15579237  0.11908706  0.50602978     0.02900
C945        C  0.13738711  0.09810740  0.52360545    -0.11200
H946        H  0.07619771  0.14714827  0.53462806     0.08500
H947        H  0.15500902  0.15706252  0.97471032     0.06000
H948        H  0.14721962  0.07676972  0.53255398     0.05800
C949        C  0.20852059  0.20997658  0.79158059     0.86200
C950        C  0.18593103  0.22748849  0.81379617    -0.54000
C951        C  0.16721139  0.20895349  0.83202353     0.09200
C952        C  0.17233123  0.17392262  0.82622157     0.20100
C953        C  0.22593329  0.18732262  0.81360552    -0.54700
C954        C  0.20734100  0.16868318  0.83182025     0.09300
C955        C  0.18663421  0.18821904  0.77281081    -0.54300
C956        C  0.16764523  0.16930531  0.79081537     0.09800
H957        H  0.18524435  0.25266338  0.81530580     0.14400
H958        H  0.15721466  0.15883988  0.84077242     0.00100
H959        H  0.25110479  0.18653994  0.81501282     0.14700
H960        H  0.18615831  0.18772465  0.74762202     0.14400
C961        C  0.29146639  0.20998134  0.70864560     0.86200
C962        C  0.27270689  0.18822442  0.68675193    -0.54000
C963        C  0.29071658  0.16931091  0.66776511     0.09200
C964        C  0.32611944  0.17392675  0.67246220     0.20100
C965        C  0.31348653  0.18732897  0.72606546    -0.54700
C966        C  0.33170883  0.16868972  0.70747738     0.09300
C967        C  0.31368359  0.22749311  0.68606176    -0.54300
C968        C  0.33191772  0.20895788  0.66734571     0.09800
H969        H  0.24752040  0.18772928  0.68627021     0.14400
H970        H  0.34067464  0.15884322  0.65734749     0.00100
H971        H  0.31488522  0.18654750  0.75123962     0.14700
H972        H  0.31518888  0.25266805  0.68537596     0.14400
C973        C  0.29427718  0.29558709  0.79440704     0.86200
C974        C  0.31636036  0.27765981  0.81648418    -0.54000
C975        C  0.33485945  0.29600550  0.83498382     0.09200
C976        C  0.32969730  0.33118087  0.82982978     0.20100
C977        C  0.27623921  0.31772654  0.81653994    -0.54700
C978        C  0.29449976  0.33632413  0.83504849     0.09300
C979        C  0.31640163  0.31773075  0.77636727    -0.54300
C980        C  0.33490926  0.33632816  0.79462983     0.09800
H981        H  0.31723394  0.25246720  0.81735497     0.14400
H982        H  0.34455691  0.34609400  0.84469160     0.00100
H983        H  0.25104520  0.31855306  0.81744671     0.14700
H984        H  0.31730455  0.31855880  0.75117119     0.14400
C985        C  0.20894242  0.29259162  0.70907148     0.86200
C986        C  0.18716095  0.27383108  0.68727755    -0.54000
C987        C  0.16830675  0.29185083  0.66842999     0.09200
C988        C  0.17298846  0.32724747  0.67313226     0.20100
C989        C  0.22651039  0.31470525  0.68648777    -0.54700
C990        C  0.20802416  0.33293138  0.66790060     0.09300
C991        C  0.18634969  0.31468937  0.72665199    -0.54300
C992        C  0.16775474  0.33291574  0.70817423     0.09800
H993        H  0.18662112  0.24864420  0.68672729     0.14400
H994        H  0.15794376  0.34179523  0.65809377     0.00100
H995        H  0.25168833  0.31614304  0.68569544     0.14700
H996        H  0.18555887  0.31611854  0.75183278     0.14400
C997        C  0.27262796  0.27379190  0.77275753     0.86200
C998        C  0.25079628  0.29187664  0.75092580    -0.54000
C999        C  0.23177277  0.27459505  0.73189724     0.09200
C1000       C  0.23713922  0.23827950  0.73725870     0.20100
C1001       C  0.25066274  0.25188432  0.79086466    -0.54700
C1002       C  0.23159269  0.23284971  0.77358837     0.09300
C1003       C  0.29073758  0.25188731  0.75078970    -0.54300
C1004       C  0.27346741  0.23285282  0.73171544     0.09800
H1005       H  0.25049153  0.31710224  0.75062579     0.14400
H1006       H  0.22230961  0.22346561  0.72242365     0.00100
H1007       H  0.25027784  0.25157368  0.81608949     0.14700
H1008       H  0.31596038  0.25157769  0.75040682     0.14400
C1009       C  0.04243070  0.54260864  0.04260643     0.86200
C1010       C  0.02486121  0.56471912  0.06519639    -0.54000
C1011       C  0.04334648  0.58294373  0.08378397     0.09200
C1012       C  0.07838272  0.57726092  0.07854637     0.20100
C1013       C  0.06501672  0.56470939  0.02502654    -0.54700
C1014       C  0.08361017  0.58293437  0.04350466     0.09300
C1015       C  0.06421818  0.52384600  0.06439368    -0.54300
C1016       C  0.08307155  0.54186317  0.08324133     0.09800
H1017       H  0.99968304  0.56615646  0.06599198     0.14400
H1018       H  0.09342700  0.59180649  0.09358538     0.00100
H1019       H  0.06580556  0.56614007  0.99984585     0.14700
H1020       H  0.06476198  0.49865908  0.06494030     0.14400
C1021       C  0.45709586  0.54561033  0.45727714     0.86200
C1022       C  0.47513288  0.56774571  0.43514466    -0.54000
C1023       C  0.45687214  0.58634403  0.41663564     0.09200
C1024       C  0.42167406  0.58120407  0.42185258     0.20100
C1025       C  0.43497006  0.56775717  0.47531621    -0.54700
C1026       C  0.41646171  0.58635499  0.45705242     0.09300
C1027       C  0.43501508  0.52768312  0.43520152    -0.54300
C1028       C  0.41651415  0.54602782  0.41670149     0.09800
H1029       H  0.50032693  0.56856924  0.43423852     0.14400
H1030       H  0.40681355  0.59611717  0.40698960     0.00100
H1031       H  0.43406597  0.56858626  0.50051228     0.14700
H1032       H  0.43414366  0.50249056  0.43433254     0.14400
C1033       C  0.45991366  0.96000925  0.04303117     0.86200
C1034       C  0.47867597  0.93824881  0.06492083    -0.54000
C1035       C  0.46066856  0.91933830  0.08390868     0.09200
C1036       C  0.42526597  0.92395956  0.07921778     0.20100
C1037       C  0.43789010  0.93736076  0.02561364    -0.54700
C1038       C  0.41967086  0.91872417  0.04420407     0.09300
C1039       C  0.43769883  0.97752442  0.06562012    -0.54300
C1040       C  0.41946830  0.95899052  0.08433856     0.09800
H1041       H  0.00386257  0.93774942  0.06539944     0.14400
H1042       H  0.41071372  0.90887759  0.09433390     0.00100
H1043       H  0.43648841  0.93657862  0.00043969     0.14700
H1044       H  0.43619119  0.50269614  0.06631215     0.14400
C1045       C  0.04285960  0.95999384  0.46008138     0.86200
C1046       C  0.06544446  0.97750536  0.43786299    -0.54000
C1047       C  0.08416523  0.95896991  0.41963242     0.09200
C1048       C  0.07904962  0.92393894  0.42543346     0.20100
C1049       C  0.02544726  0.93733990  0.43805730    -0.54700
C1050       C  0.04403960  0.91869893  0.41983944     0.09300
C1051       C  0.06475145  0.93823564  0.47884686    -0.54300
C1052       C  0.08374055  0.91932167  0.46083877     0.09800
H1053       H  0.06612766  0.50268222  0.43636006     0.14400
H1054       H  0.09416671  0.90885546  0.41088070     0.00100
H1055       H  0.00027565  0.93655708  0.43665447     0.14700
H1056       H  0.06522999  0.93774012  0.00403553     0.14400
C1057       C  0.47874596  0.52381382  0.47892382     0.86200
C1058       C  0.00057651  0.54189628  0.00075489    -0.54000
C1059       C  0.01960243  0.52461274  0.01978075     0.09200
C1060       C  0.01424136  0.98829737  0.01441184     0.20100
C1061       C  0.00071133  0.50190543  0.46081270    -0.54700
C1062       C  0.01978636  0.98286708  0.47808031     0.09300
C1063       C  0.46063860  0.50191111  0.00089093    -0.54300
C1064       C  0.47791260  0.98287601  0.01995896     0.09800
H1065       H  0.00087843  0.56712188  0.00105683     0.14400
H1066       H  0.02907292  0.97348178  0.02924536     0.00100
H1067       H  0.00109427  0.50159665  0.43558781     0.14700
H1068       H  0.43541577  0.50160535  0.00127586     0.14400
C1069       C  0.35775979  0.85914911  0.28113714     0.02900
C1070       C  0.34900668  0.89023695  0.27416914    -0.13300
C1071       C  0.36989482  0.90904082  0.25683248     0.00400
C1072       C  0.39501683  0.89559393  0.24294884    -0.11800
C1073       C  0.40842792  0.87155163  0.25851308     0.02900
C1074       C  0.38936309  0.85095871  0.27590643    -0.11200
H1075       H  0.32727758  0.89964040  0.28274851     0.08500
H1076       H  0.40883241  0.90898916  0.22648035     0.06000
H1077       H  0.39887520  0.82983988  0.28567248     0.05800
C1078       C  0.28101066  0.85914750  0.35789450     0.02900
C1079       C  0.27576940  0.85095437  0.38949639    -0.13300
C1080       C  0.25836167  0.87154288  0.40855669     0.00400
C1081       C  0.24279222  0.89557774  0.39513912    -0.11800
C1082       C  0.25668953  0.90903210  0.37003010     0.02900
C1083       C  0.27404017  0.89023487  0.34914376    -0.11200
H1084       H  0.28553851  0.82983807  0.39901115     0.08500
H1085       H  0.22631410  0.90896869  0.40894993     0.06000
H1086       H  0.28262672  0.89964241  0.32741904     0.05800
C1087       C  0.22122937  0.85630261  0.14542499     0.02900
C1088       C  0.22667005  0.88778868  0.15411172    -0.13300
C1089       C  0.24433154  0.90692261  0.13373242     0.00400
C1090       C  0.26006976  0.89340645  0.10974412    -0.11800
C1091       C  0.24546875  0.86911733  0.09571676     0.02900
C1092       C  0.22790584  0.84812496  0.11412032    -0.11200
H1093       H  0.21686979  0.89714296  0.17532801     0.08500
H1094       H  0.27677473  0.90709786  0.09650860     0.06000
H1095       H  0.21896677  0.82678671  0.10428319     0.05800
C1096       C  0.35541617  0.72206158  0.14483403     0.02900
C1097       C  0.38708700  0.72674367  0.15323970    -0.13300
C1098       C  0.40655754  0.74405012  0.13284128     0.00400
C1099       C  0.39334372  0.76008971  0.10899887    -0.11800
C1100       C  0.36838431  0.74644323  0.09522235     0.02900
C1101       C  0.34714085  0.72926350  0.11372582    -0.11200
H1102       H  0.39630224  0.71671409  0.17432871     0.08500
H1103       H  0.40732700  0.77656526  0.09579903     0.06000
H1104       H  0.32548075  0.72096739  0.10407473     0.05800
O1105       O  0.20557369  0.85542801  0.49628710    -0.73200
O1106       O  0.29828086  0.85588635  0.00764915    -0.74200
O1107       O  0.24603527  0.84703841  0.04629148    -0.62800
O1108       O  0.25801347  0.84825364  0.45743611    -0.71200
O1109       O  0.25712215  0.89987637  0.45614783    -0.70800
O1110       O  0.24611369  0.89862386  0.04887058    -0.62000
O1111       O  0.29629320  0.90747891  0.00809658    -0.74500
O1112       O  0.20667566  0.90702326  0.49720082    -0.73300
Cu1113     Cu  0.25197969  0.84956650  0.00189325     1.04600
Cu1114     Cu  0.25152694  0.90541440  0.00260754     1.04300
C1115       C  0.19160079  0.88209531  0.49582977     0.93000
C1116       C  0.31176708  0.88276794  0.00879655     0.92100
C1117       C  0.24516933  0.87155352  0.06198484     0.84300
C1118       C  0.25860832  0.87316191  0.44235813     0.90600
O1119       O  0.40591011  0.79703268  0.00711881    -0.73200
O1120       O  0.40508308  0.70790103  0.49612842    -0.74200
O1121       O  0.39796643  0.75793570  0.45533236    -0.62800
O1122       O  0.39725706  0.74720025  0.04790287    -0.71200
O1123       O  0.34565382  0.74767000  0.04608276    -0.70800
O1124       O  0.34634298  0.75867208  0.45695259    -0.62000
O1125       O  0.35345339  0.70679982  0.49610241    -0.74500
O1126       O  0.35431431  0.79936429  0.00686133    -0.73300
Cu1127     Cu  0.40368023  0.75249852  0.00164105     1.04600
Cu1128     Cu  0.34781421  0.75314662  0.00151428     1.04300
C1129       C  0.38129532  0.81261634  0.00782654     0.93000
C1130       C  0.38012671  0.69290488  0.49509635     0.92100
C1131       C  0.37123122  0.75922894  0.44170783     0.84300
C1132       C  0.37033699  0.74650938  0.06142300     0.90600
C1133       C  0.39630863  0.89625292  0.03113557     0.02900
C1134       C  0.40444360  0.86489483  0.02476088    -0.13300
C1135       C  0.38347431  0.84638030  0.00745465     0.00400
C1136       C  0.35909325  0.86028298  0.99288836    -0.11800
C1137       C  0.34568402  0.88458698  0.00820811     0.02900
C1138       C  0.36488133  0.90502097  0.02557397    -0.11200
H1139       H  0.42578161  0.85510451  0.03370534     0.08500
H1140       H  0.34538998  0.84694751  0.47638889     0.06000
H1141       H  0.35560153  0.92638071  0.03507533     0.05800
C1142       C  0.35761798  0.78259169  0.35774481     0.02900
C1143       C  0.38896561  0.77647672  0.34917636    -0.13300
C1144       C  0.40776944  0.75902807  0.36980321     0.00400
C1145       C  0.39417745  0.74420975  0.39431583    -0.11800
C1146       C  0.36966183  0.75903077  0.40790214     0.02900
C1147       C  0.34904272  0.77648067  0.38909237    -0.11200
H1148       H  0.39852152  0.78569958  0.32777819     0.08500
H1149       H  0.40769838  0.72770244  0.40784108     0.06000
H1150       H  0.32764466  0.78570807  0.39864439     0.05800
C1151       C  0.14528442  0.85628436  0.22138576     0.02900
C1152       C  0.15396599  0.88776881  0.22684139    -0.13300
C1153       C  0.13358571  0.90689756  0.24451183     0.00400
C1154       C  0.10960029  0.89337681  0.26024472    -0.11800
C1155       C  0.09557847  0.86908969  0.24563335     0.02900
C1156       C  0.11398380  0.84810347  0.22806029    -0.11200
H1157       H  0.17517902  0.89712675  0.21704379     0.08500
H1158       H  0.09636241  0.90706525  0.27695332     0.06000
H1159       H  0.10415022  0.82676785  0.21911124     0.05800
O1160       O  0.45730068  0.84824688  0.25814574    -0.73200
O1161       O  0.04615608  0.84701458  0.24619031    -0.74200
O1162       O  0.00750044  0.85585898  0.29843068    -0.62800
O1163       O  0.49616581  0.85542746  0.20571301    -0.71200
O1164       O  0.49706991  0.90702239  0.20684041    -0.70800
O1165       O  0.00796726  0.90745188  0.29645825    -0.62000
O1166       O  0.04873619  0.89859976  0.24627556    -0.74500
O1167       O  0.45602144  0.89987042  0.25728913    -0.73300
Cu1168     Cu  0.00175804  0.84955034  0.25212282     1.04600
Cu1169     Cu  0.00247794  0.90539875  0.25169210     1.04300
C1170       C  0.44222793  0.87315930  0.25875942     0.93000
C1171       C  0.06184902  0.87152796  0.24532936     0.92100
C1172       C  0.00865263  0.88273801  0.31192557     0.84300
C1173       C  0.49570417  0.88210048  0.19175229     0.90600
O1174       O  0.45681501  0.75863936  0.34648557    -0.73200
O1175       O  0.04593069  0.74760914  0.34578100    -0.74200
O1176       O  0.49594891  0.70675182  0.35360963    -0.62800
O1177       O  0.00672716  0.79932134  0.35445407    -0.71200
O1178       O  0.00699700  0.79699687  0.40605402    -0.70800
O1179       O  0.49597795  0.70788040  0.40524344    -0.62000
O1180       O  0.04776318  0.74715246  0.39738814    -0.74500
O1181       O  0.45519689  0.75792465  0.39811354    -0.73300
Cu1182     Cu  0.00136958  0.75309941  0.34795394     1.04600
Cu1183     Cu  0.00150470  0.75246955  0.40382612     1.04300
C1184       C  0.44157273  0.75921388  0.37137568     0.93000
C1185       C  0.06127579  0.74645540  0.37046191     0.92100
C1186       C  0.49494065  0.69287216  0.38029228     0.84300
C1187       C  0.00770077  0.81257685  0.38143774     0.90600
C1188       C  0.03097813  0.89622309  0.39647420     0.02900
C1189       C  0.02541258  0.90499258  0.36504699    -0.13300
C1190       C  0.00805840  0.88455407  0.34584398     0.00400
C1191       C  0.99275049  0.86024402  0.35924779    -0.11800
C1192       C  0.00732646  0.84634099  0.38362224     0.02900
C1193       C  0.02462158  0.86485936  0.40460038    -0.11200
H1194       H  0.03490444  0.92635627  0.35577087     0.08500
H1195       H  0.47625559  0.84690685  0.34554143     0.06000
H1196       H  0.03357041  0.85506875  0.42593728     0.05800
C1197       C  0.14469606  0.72205174  0.35552257     0.02900
C1198       C  0.11358170  0.72922761  0.34725218    -0.13300
C1199       C  0.09507199  0.74640397  0.36849801     0.00400
C1200       C  0.10884592  0.76007515  0.39344726    -0.11800
C1201       C  0.13269345  0.74404948  0.40666536     0.02900
C1202       C  0.15310070  0.72674850  0.38719466    -0.11200
H1203       H  0.10393211  0.72091563  0.32559557     0.08500
H1204       H  0.09564020  0.77655070  0.40742837     0.06000
H1205       H  0.17419396  0.71673113  0.39641147     0.05800
C1206       C  0.35507414  0.64622133  0.22055016     0.02900
C1207       C  0.38649883  0.65499036  0.22611497    -0.13300
C1208       C  0.40569801  0.63456071  0.24348694     0.00400
C1209       C  0.39229397  0.61025603  0.25880578    -0.11800
C1210       C  0.36791149  0.59635433  0.24424469     0.02900
C1211       C  0.34694134  0.61486648  0.22693380    -0.11200
H1212       H  0.39577570  0.67634864  0.21661167     0.08500
H1213       H  0.40599939  0.59692175  0.27530585     0.06000
H1214       H  0.32560364  0.60507608  0.21799214     0.05800
O1215       O  0.39706657  0.54933025  0.24484611    -0.73200
O1216       O  0.39791123  0.95676292  0.25558992    -0.74200
O1217       O  0.40571912  0.99764031  0.20561779    -0.62800
O1218       O  0.40503374  0.50863385  0.29474998    -0.71200
O1219       O  0.35341029  0.50791046  0.29637754    -0.70400
O1220       O  0.35411587  0.99719288  0.20379972    -0.62000
O1221       O  0.34628166  0.95788150  0.25556432    -0.74500
O1222       O  0.34547028  0.54701474  0.24459709    -0.73300
Cu1223     Cu  0.40355936  0.50311009  0.25019009     1.04600
Cu1224     Cu  0.34769271  0.50248083  0.25006771     1.04300
C1225       C  0.37008712  0.56259026  0.24388278     0.93000
C1226       C  0.37123542  0.94287679  0.25659217     0.92100
C1227       C  0.38103550  0.99649803  0.19027780     0.84300
C1228       C  0.38014777  0.50919936  0.30999770     0.90600
O1229       O  0.25541371  0.95787218  0.34643055    -0.73200
O1230       O  0.24439632  0.54698748  0.34562165    -0.74200
O1231       O  0.29619568  0.50791092  0.35357501    -0.62800
O1232       O  0.20362584  0.99715066  0.35427599    -0.71200
O1233       O  0.20544791  0.99760951  0.40588336    -0.70800
O1234       O  0.29456409  0.50863363  0.40520252    -0.62000
O1235       O  0.24465158  0.54931717  0.39722177    -0.74500
O1236       O  0.25543333  0.95674902  0.39806445    -0.73300
Cu1237     Cu  0.24988819  0.50246075  0.34785073     1.04600
Cu1238     Cu  0.25001052  0.50309588  0.40372300     1.04300
C1239       C  0.25644378  0.94286630  0.37138291     0.93000
C1240       C  0.24368576  0.56256961  0.37023692     0.92100
C1241       C  0.30981271  0.50920563  0.38031637     0.84300
C1242       C  0.19010757  0.99645566  0.38119958     0.90600
C1243       C  0.39375658  0.53260667  0.39394373     0.02900
C1244       C  0.40233514  0.52647703  0.36260087    -0.13300
C1245       C  0.38172408  0.50900920  0.34380216     0.00400
C1246       C  0.35721614  0.49418826  0.35739693    -0.11800
C1247       C  0.34361573  0.50902151  0.38189802     0.02900
C1248       C  0.36241094  0.52648958  0.40251483    -0.11200
H1249       H  0.42372930  0.53570415  0.35304341     0.08500
H1250       H  0.34369928  0.97766966  0.34387734     0.06000
H1251       H  0.35285010  0.53572416  0.42390681     0.05800
C1252       C  0.22040315  0.64621151  0.35518943     0.02900
C1253       C  0.22596251  0.65498599  0.38661635    -0.13300
C1254       C  0.24331715  0.63455028  0.40582391     0.00400
C1255       C  0.25863135  0.61023823  0.39242408    -0.11800
C1256       C  0.24406010  0.59633238  0.36804921     0.02900
C1257       C  0.22676540  0.61484744  0.34706711    -0.11200
H1258       H  0.21646551  0.67635077  0.39588876     0.08500
H1259       H  0.27512547  0.59690152  0.40613398     0.06000
H1260       H  0.21782029  0.60505388  0.32573025     0.05800
O1261       O  0.10400219  0.74489600  0.45424849    -0.73200
O1262       O  0.10401735  0.75690614  0.04703572    -0.74200
O1263       O  0.09644014  0.79569573  0.49457461    -0.62800
O1264       O  0.09537013  0.70641650  0.00683003    -0.71200
O1265       O  0.14694427  0.70404961  0.00657737    -0.70800
O1266       O  0.14804126  0.79685439  0.49461153    -0.62000
O1267       O  0.15560959  0.75639205  0.04520450    -0.74500
O1268       O  0.15558673  0.74418834  0.45589464    -0.73300
Cu1269     Cu  0.09783854  0.75101198  0.00067059     1.04600
Cu1270     Cu  0.15366950  0.75035325  0.00055723     1.04300
C1271       C  0.13085356  0.74346787  0.44058969     0.93000
C1272       C  0.13083179  0.75757337  0.06060724     0.92100
C1273       C  0.12136349  0.81078543  0.49365318     0.84300
C1274       C  0.11994159  0.69077785  0.00774960     0.90600
C1275       C  0.10668809  0.89633409  0.47422264     0.02900
C1276       C  0.13814643  0.90476734  0.48023417    -0.13300
C1277       C  0.15759598  0.88329859  0.49607598     0.00400
C1278       C  0.14450802  0.85775206  0.50948417    -0.11800
C1279       C  0.11995815  0.84474769  0.49440692     0.02900
C1280       C  0.09876971  0.86443987  0.47851780    -0.11200
H1281       H  0.14732849  0.92668593  0.47195658     0.08500
H1282       H  0.15825596  0.84357896  0.02523216     0.06000
H1283       H  0.07741293  0.85519124  0.46907654     0.05800
O1284       O  0.00673296  0.70644447  0.09553668    -0.73200
O1285       O  0.49442831  0.79571553  0.09659328    -0.74200
O1286       O  0.04690316  0.75695246  0.10416885    -0.62800
O1287       O  0.45413800  0.74489850  0.10415696    -0.71200
O1288       O  0.45577940  0.74421083  0.15574663    -0.70800
O1289       O  0.04507919  0.75645182  0.15576641    -0.62000
O1290       O  0.49446876  0.79688941  0.14819910    -0.74500
O1291       O  0.00648091  0.70409569  0.14711622    -0.73300
Cu1292     Cu  0.00054913  0.75103631  0.09799624     1.04600
Cu1293     Cu  0.00043740  0.75039517  0.15383191     1.04300
C1294       C  0.00765540  0.69081540  0.12011449     0.93000
C1295       C  0.49350390  0.81081131  0.12151657     0.92100
C1296       C  0.06047629  0.75762612  0.13098318     0.84300
C1297       C  0.44047886  0.74347343  0.13100904     0.90600
C1298       C  0.47405479  0.89635117  0.10685269     0.02900
C1299       C  0.47834724  0.86445768  0.09892899    -0.13300
C1300       C  0.49425716  0.84477087  0.12010514     0.00400
C1301       C  0.50935671  0.85777998  0.14464094    -0.11800
C1302       C  0.49594715  0.88331935  0.15774576     0.02900
C1303       C  0.48008618  0.90478625  0.13830981    -0.11200
H1304       H  0.46889084  0.85520629  0.07757811     0.08500
H1305       H  0.02511648  0.84360874  0.15837730     0.06000
H1306       H  0.47180882  0.92670279  0.14750138     0.05800
C1307       C  0.14542296  0.77842527  0.14554741     0.02900
C1308       C  0.15369013  0.77315061  0.11387395    -0.13300
C1309       C  0.13248999  0.75690841  0.09452830     0.00400
C1310       C  0.10769264  0.74233557  0.10784338    -0.11800
C1311       C  0.09439267  0.75694360  0.13263293     0.02900
C1312       C  0.11374907  0.77318787  0.15381989    -0.11200
H1313       H  0.17523717  0.78220651  0.10450333     0.08500
H1314       H  0.09385821  0.72634716  0.09402137     0.06000
H1315       H  0.10438718  0.78227010  0.17536251     0.05800
O1316       O  0.29407315  0.59825357  0.49351803    -0.73200
O1317       O  0.20521343  0.59700686  0.00547381    -0.74200
O1318       O  0.24387055  0.60585636  0.45323568    -0.62800
O1319       O  0.25520869  0.60541535  0.04595112    -0.71200
O1320       O  0.25428750  0.65701026  0.04483421    -0.70800
O1321       O  0.24338802  0.65744911  0.45521206    -0.62000
O1322       O  0.20262298  0.64859208  0.00539639    -0.74500
O1323       O  0.29533096  0.64987755  0.49438194    -0.73300
Cu1324     Cu  0.24961400  0.59954637  0.99954146     1.04600
Cu1325     Cu  0.24887674  0.65539387  0.99998033     1.04300
C1326       C  0.30913527  0.62317047  0.49290871     0.93000
C1327       C  0.18951541  0.62152037  0.00633784     0.92100
C1328       C  0.24271392  0.63273540  0.43974243     0.84300
C1329       C  0.25566739  0.63208583  0.05991718     0.90600
C1330       C  0.39360935  0.60917613  0.47053932     0.02900
C1331       C  0.40235653  0.64026330  0.47751190    -0.13300
C1332       C  0.38146140  0.65906838  0.49484328     0.00400
C1333       C  0.35633457  0.64562401  0.50871600    -0.11800
C1334       C  0.34293518  0.62157455  0.49315468     0.02900
C1335       C  0.36200815  0.60098331  0.47576533    -0.11200
H1336       H  0.42408770  0.64966522  0.46894065     0.08500
H1337       H  0.34251238  0.65901933  0.02518118     0.06000
H1338       H  0.35250367  0.57986219  0.46599973     0.05800
O1339       O  0.25692971  0.54570003  0.15509300    -0.73200
O1340       O  0.24464391  0.95642535  0.15615945    -0.74200
O1341       O  0.29723074  0.99488490  0.14754284    -0.62800
O1342       O  0.20446185  0.50693476  0.14751094    -0.71200
O1343       O  0.20630169  0.50642945  0.09591388    -0.70800
O1344       O  0.29559767  0.99417967  0.09595299    -0.62000
O1345       O  0.24490268  0.95406944  0.10458016    -0.74500
O1346       O  0.25690965  0.54686100  0.10348676    -0.73300
Cu1347     Cu  0.25081661  0.50102024  0.15369690     1.04600
Cu1348     Cu  0.25094249  0.50036755  0.09786102     1.04300
C1349       C  0.25786767  0.56078915  0.13016659     0.93000
C1350       C  0.24372873  0.94079269  0.13158301     0.92100
C1351       C  0.31089434  0.99345632  0.12069284     0.84300
C1352       C  0.19089706  0.50760853  0.12069218     0.90600
C1353       C  0.39596955  0.97208886  0.10685416     0.02900
C1354       C  0.40424249  0.97928317  0.13796531    -0.13300
C1355       C  0.38298825  0.99644568  0.15647777     0.00400
C1356       C  0.35802156  0.51008284  0.14271198    -0.11800
C1357       C  0.34481469  0.99404570  0.11886246     0.02900
C1358       C  0.36429449  0.97675666  0.09845498    -0.11200
H1359       H  0.42590738  0.97099161  0.14761210     0.08500
H1360       H  0.34403048  0.52655033  0.15591700     0.06000
H1361       H  0.35508297  0.96672788  0.07736430     0.05800
C1362       C  0.27733171  0.64632623  0.14481878     0.02900
C1363       C  0.27303372  0.61443500  0.15274476    -0.13300
C1364       C  0.25712388  0.59474938  0.13156923     0.00400
C1365       C  0.24203218  0.60775713  0.10702703    -0.11800
C1366       C  0.25543731  0.63329733  0.09392458     0.02900
C1367       C  0.27129918  0.65476127  0.11336144    -0.11200
H1368       H  0.28248517  0.60518401  0.17409854     0.08500
H1369       H  0.22627336  0.59358748  0.09329008     0.06000
H1370       H  0.27957432  0.67667720  0.10417065     0.05800
O1371       O  0.15494031  0.54567948  0.25707215    -0.73200
O1372       O  0.15600429  0.95640027  0.24482796    -0.74200
O1373       O  0.14735745  0.50687891  0.20461884    -0.62800
O1374       O  0.14737807  0.99488819  0.29740380    -0.71200
O1375       O  0.09579329  0.99419549  0.29576125    -0.70800
O1376       O  0.09576524  0.50637892  0.20645440    -0.62000
O1377       O  0.10442979  0.95404696  0.24508575    -0.74500
O1378       O  0.10333939  0.54685329  0.25703699    -0.73300
Cu1379     Cu  0.15353849  0.50099456  0.25098499     1.04600
Cu1380     Cu  0.09770738  0.50035129  0.25110210     1.04300
C1381       C  0.13001887  0.56077685  0.25799217     0.93000
C1382       C  0.13143132  0.94076824  0.24391453     0.92100
C1383       C  0.12054189  0.50755166  0.19104967     0.84300
C1384       C  0.12052741  0.99346892  0.31106442     0.90600
C1385       C  0.10668225  0.97206788  0.39613448     0.02900
C1386       C  0.09827983  0.97676151  0.36446122    -0.13300
C1387       C  0.11868949  0.99405373  0.34498863     0.00400
C1388       C  0.14254031  0.51007522  0.35820811    -0.11800
C1389       C  0.15631027  0.99640610  0.38315735     0.02900
C1390       C  0.13779708  0.97923892  0.40440540    -0.11200
H1391       H  0.07718657  0.96674721  0.35524476     0.08500
H1392       H  0.15574817  0.52654462  0.34422507     0.06000
H1393       H  0.14744467  0.97092931  0.42606400     0.05800
O1394       O  0.00525568  0.64861875  0.20282176    -0.73200
O1395       O  0.49426328  0.64986551  0.29554137    -0.74200
O1396       O  0.04470305  0.65701577  0.25448195    -0.62800
O1397       O  0.45508145  0.65746015  0.24360146    -0.71200
O1398       O  0.45310960  0.60586732  0.24405314    -0.70800
O1399       O  0.04582074  0.60542042  0.25537552    -0.62000
O1400       O  0.49339969  0.59824226  0.29425189    -0.74500
O1401       O  0.00533827  0.59703267  0.20538828    -0.73300
Cu1402     Cu  0.99984957  0.65540304  0.24908379     1.04600
Cu1403     Cu  0.99941404  0.59955537  0.24979058     1.04300
C1404       C  0.00619822  0.62155137  0.18970068     0.93000
C1405       C  0.49279207  0.62315115  0.30933029     0.92100
C1406       C  0.05978626  0.63208898  0.25583562     0.84300
C1407       C  0.43961522  0.63274676  0.24290374     0.90600
C1408       C  0.47036589  0.60915974  0.39378554     0.02900
C1409       C  0.47733262  0.64024843  0.40253220    -0.13300
C1410       C  0.49469112  0.65903799  0.38164850     0.00400
C1411       C  0.50859806  0.64557540  0.35654726    -0.11800
C1412       C  0.49303745  0.62153576  0.34313117     0.02900
C1413       C  0.47562222  0.60095606  0.36218904    -0.11200
H1414       H  0.46873848  0.64966249  0.42425220     0.08500
H1415       H  0.02507802  0.65896220  0.34273752     0.06000
H1416       H  0.46585740  0.57983834  0.35267547     0.05800
C1417       C  0.14469970  0.64632125  0.27742751     0.02900
C1418       C  0.15261775  0.61442577  0.27312816    -0.13300
C1419       C  0.13142916  0.59473909  0.25723562     0.00400
C1420       C  0.10688086  0.60775070  0.24215830    -0.11800
C1421       C  0.09379117  0.63329532  0.25557479     0.02900
C1422       C  0.11324051  0.65475913  0.27141970    -0.11200
H1423       H  0.17397346  0.60517184  0.28257017     0.08500
H1424       H  0.09313197  0.59358114  0.22640965     0.06000
H1425       H  0.10405722  0.67667645  0.27970417     0.05800
C1426       C  0.03014396  0.60631623  0.10625988     0.02900
C1427       C  0.02471562  0.63780814  0.09758367    -0.13300
C1428       C  0.00705761  0.65694529  0.11796679     0.00400
C1429       C  0.99131230  0.64343086  0.14194931    -0.11800
C1430       C  0.00589801  0.61912535  0.15596808     0.02900
C1431       C  0.02345667  0.59813060  0.13755938    -0.11200
H1432       H  0.03452080  0.64716350  0.07637120     0.08500
H1433       H  0.47461022  0.65712704  0.15518706     0.06000
H1434       H  0.03238627  0.57678398  0.14738994     0.05800
C1435       C  0.10595619  0.52843210  0.10611987     0.02900
C1436       C  0.09768481  0.52314645  0.13778948    -0.13300
C1437       C  0.11888004  0.50688828  0.15712915     0.00400
C1438       C  0.14367518  0.49231108  0.14380939    -0.11800
C1439       C  0.15698149  0.50692917  0.11903089     0.02900
C1440       C  0.13763060  0.52318956  0.09784901    -0.11200
H1441       H  0.07613852  0.53220623  0.14716231     0.08500
H1442       H  0.15750416  0.97631418  0.15762589     0.06000
H1443       H  0.14699677  0.53227925  0.07631233     0.05800
C1444       C  0.10608330  0.60629754  0.03028819     0.02900
C1445       C  0.09740453  0.63778479  0.02483323    -0.13300
C1446       C  0.11778426  0.65690658  0.00715829     0.00400
C1447       C  0.14176452  0.64337620  0.99142130    -0.11800
C1448       C  0.15578607  0.61908554  0.00603137     0.02900
C1449       C  0.13738167  0.59810693  0.02360902    -0.11200
H1450       H  0.07619396  0.64714948  0.03463347     0.08500
H1451       H  0.15500164  0.65705940  0.47471015     0.06000
H1452       H  0.14721439  0.57676959  0.03255795     0.05800
C1453       C  0.20852144  0.70997630  0.29158046     0.86200
C1454       C  0.18593169  0.72748792  0.31379627    -0.54000
C1455       C  0.16721208  0.70895264  0.33202352     0.09200
C1456       C  0.17233225  0.67392188  0.32622137     0.20100
C1457       C  0.22593424  0.68732213  0.31360530    -0.54700
C1458       C  0.20734199  0.66868235  0.33181989     0.09300
C1459       C  0.18663509  0.68821865  0.27281065    -0.54300
C1460       C  0.16764633  0.66930469  0.29081526     0.09800
H1461       H  0.18524474  0.75266273  0.31530594     0.14400
H1462       H  0.15721575  0.65883899  0.34077209     0.00100
H1463       H  0.25110574  0.68653965  0.31501269     0.14700
H1464       H  0.18615895  0.68772448  0.24762185     0.14400
C1465       C  0.29146726  0.70998234  0.20864497     0.86200
C1466       C  0.27270774  0.68822567  0.18675134    -0.54000
C1467       C  0.29071736  0.66931250  0.16776432     0.09200
C1468       C  0.32612027  0.67392839  0.17246114     0.20100
C1469       C  0.31348776  0.68733015  0.22606456    -0.54700
C1470       C  0.33171009  0.66869119  0.20747627     0.09300
C1471       C  0.31368411  0.72749459  0.18606123    -0.54300
C1472       C  0.33191823  0.70895964  0.16734493     0.09800
H1473       H  0.24752123  0.68773028  0.18626988     0.14400
H1474       H  0.34067539  0.65884506  0.15734609     0.00100
H1475       H  0.31488659  0.68654846  0.25123870     0.14700
H1476       H  0.31518922  0.75266954  0.18537569     0.14400
C1477       C  0.29427828  0.79558798  0.29440472     0.86200
C1478       C  0.31636047  0.77766093  0.31648298    -0.54000
C1479       C  0.33485983  0.79600683  0.33498208     0.09200
C1480       C  0.32969903  0.83118217  0.32982633     0.20100
C1481       C  0.27624073  0.81772888  0.31653617    -0.54700
C1482       C  0.29450147  0.83632669  0.33504411     0.09300
C1483       C  0.31640377  0.81773021  0.27636425    -0.54300
C1484       C  0.33491189  0.83632782  0.29462617     0.09800
H1485       H  0.31723317  0.75246841  0.31735496     0.14400
H1486       H  0.34455881  0.84609546  0.34468785     0.00100
H1487       H  0.25104664  0.81855585  0.31744287     0.14700
H1488       H  0.31730680  0.81855732  0.25116806     0.14400
C1489       C  0.20894383  0.79259112  0.20906920     0.86200
C1490       C  0.18716151  0.77383044  0.18727632    -0.54000
C1491       C  0.16830793  0.79185006  0.16842804     0.09200
C1492       C  0.17299109  0.82724673  0.17312852     0.20100
C1493       C  0.22651255  0.81470309  0.18648433    -0.54700
C1494       C  0.20802701  0.83292907  0.16789630     0.09300
C1495       C  0.18635197  0.81469043  0.22664878    -0.54300
C1496       C  0.16775768  0.83291665  0.20817025     0.09800
H1497       H  0.18662054  0.74864346  0.18672741     0.14400
H1498       H  0.15794676  0.84179432  0.15808951     0.00100
H1499       H  0.25169060  0.81614022  0.18569216     0.14700
H1500       H  0.18556103  0.81612045  0.25182947     0.14400
C1501       C  0.27262858  0.77379245  0.27275623     0.86200
C1502       C  0.25079688  0.79187680  0.25092422    -0.54000
C1503       C  0.23177344  0.77459487  0.23189593     0.09200
C1504       C  0.23713987  0.73827941  0.23725811     0.20100
C1505       C  0.25066339  0.75188496  0.29086385    -0.54700
C1506       C  0.23159336  0.73284987  0.27358794     0.09300
C1507       C  0.29073820  0.75188774  0.25078885    -0.54300
C1508       C  0.27346809  0.73285311  0.23171489     0.09800
H1509       H  0.25049230  0.81710241  0.25062355     0.14400
H1510       H  0.22231039  0.72346527  0.22242318     0.00100
H1511       H  0.25027867  0.75157465  0.31608870     0.14700
H1512       H  0.31596101  0.75157832  0.25040582     0.14400
C1513       C  0.04243072  0.54260868  0.54260641     0.86200
C1514       C  0.02486121  0.56471914  0.56519635    -0.54000
C1515       C  0.04334645  0.58294372  0.58378396     0.09200
C1516       C  0.07838272  0.57726094  0.57854640     0.20100
C1517       C  0.06501675  0.56470941  0.52502653    -0.54700
C1518       C  0.08361019  0.58293437  0.54350467     0.09300
C1519       C  0.06421820  0.52384608  0.56439365    -0.54300
C1520       C  0.08307156  0.54186318  0.58324132     0.09800
H1521       H  0.99968303  0.56615646  0.56599194     0.14400
H1522       H  0.09342696  0.59180647  0.59358544     0.00100
H1523       H  0.06580562  0.56614007  0.49984586     0.14700
H1524       H  0.06476197  0.49865907  0.56494023     0.14400
C1525       C  0.45709590  0.54561036  0.95727715     0.86200
C1526       C  0.47513290  0.56774574  0.93514465    -0.54000
C1527       C  0.45687214  0.58634403  0.91663562     0.09200
C1528       C  0.42167404  0.58120408  0.92185260     0.20100
C1529       C  0.43497011  0.56775720  0.97531622    -0.54700
C1530       C  0.41646173  0.58635499  0.95705244     0.09300
C1531       C  0.43501510  0.52768319  0.93520154    -0.54300
C1532       C  0.41651413  0.54602783  0.91670153     0.09800
H1533       H  0.50032696  0.56856927  0.93423849     0.14400
H1534       H  0.40681350  0.59611719  0.90698964     0.00100
H1535       H  0.43406601  0.56858630  0.00051232     0.14700
H1536       H  0.43414375  0.50249053  0.93433253     0.14400
C1537       C  0.45991367  0.96000922  0.54303115     0.86200
C1538       C  0.47867598  0.93824879  0.56492083    -0.54000
C1539       C  0.46066857  0.91933831  0.58390870     0.09200
C1540       C  0.42526598  0.92395957  0.57921782     0.20100
C1541       C  0.43789010  0.93736071  0.52561366    -0.54700
C1542       C  0.41967086  0.91872414  0.54420413     0.09300
C1543       C  0.43769883  0.97752440  0.56562009    -0.54300
C1544       C  0.41946830  0.95899052  0.58433855     0.09800
H1545       H  0.00386258  0.93774936  0.56539942     0.14400
H1546       H  0.41071374  0.90887760  0.59433397     0.00100
H1547       H  0.43648837  0.93657854  0.50043973     0.14700
H1548       H  0.43619118  0.50269616  0.56631214     0.14400
C1549       C  0.04285963  0.95999381  0.96008140     0.86200
C1550       C  0.06544447  0.97750533  0.93786299    -0.54000
C1551       C  0.08416523  0.95896990  0.91963239     0.09200
C1552       C  0.07904963  0.92393891  0.92543343     0.20100
C1553       C  0.02544727  0.93733987  0.93805732    -0.54700
C1554       C  0.04403961  0.91869892  0.91983943     0.09300
C1555       C  0.06475148  0.93823561  0.97884685    -0.54300
C1556       C  0.08374056  0.91932165  0.96083875     0.09800
H1557       H  0.06612771  0.50268219  0.93636006     0.14400
H1558       H  0.09416669  0.90885546  0.91088066     0.00100
H1559       H  0.00027566  0.93655703  0.93665450     0.14700
H1560       H  0.06522993  0.93774018  0.50403551     0.14400
C1561       C  0.47874599  0.52381384  0.97892379     0.86200
C1562       C  0.00057653  0.54189627  0.50075489    -0.54000
C1563       C  0.01960245  0.52461276  0.51978077     0.09200
C1564       C  0.01424133  0.98829736  0.51441180     0.20100
C1565       C  0.00071130  0.50190544  0.96081265    -0.54700
C1566       C  0.01978640  0.98286706  0.97808035     0.09300
C1567       C  0.46063859  0.50191110  0.50089095    -0.54300
C1568       C  0.47791261  0.98287597  0.51995892     0.09800
H1569       H  0.00087843  0.56712188  0.50105681     0.14400
H1570       H  0.02907289  0.97348173  0.52924529     0.00100
H1571       H  0.00109423  0.50159667  0.93558776     0.14700
H1572       H  0.43541574  0.50160528  0.50127583     0.14400
C1573       C  0.35775978  0.85914913  0.78113720     0.02900
C1574       C  0.34900666  0.89023694  0.77416913    -0.13300
C1575       C  0.36989481  0.90904079  0.75683246     0.00400
C1576       C  0.39501682  0.89559387  0.74294883    -0.11800
C1577       C  0.40842791  0.87155159  0.75851310     0.02900
C1578       C  0.38936310  0.85095871  0.77590654    -0.11200
H1579       H  0.32727753  0.89964040  0.78274845     0.08500
H1580       H  0.40883240  0.90898909  0.72648033     0.06000
H1581       H  0.39887515  0.82983992  0.78567261     0.05800
C1582       C  0.28101063  0.85914751  0.85789448     0.02900
C1583       C  0.27576934  0.85095438  0.88949637    -0.13300
C1584       C  0.25836157  0.87154288  0.90855666     0.00400
C1585       C  0.24279217  0.89557778  0.89513910    -0.11800
C1586       C  0.25668944  0.90903210  0.87003004     0.02900
C1587       C  0.27404013  0.89023486  0.84914374    -0.11200
H1588       H  0.28553847  0.82983811  0.89901114     0.08500
H1589       H  0.22631412  0.90896880  0.90894995     0.06000
H1590       H  0.28262674  0.89964239  0.82741903     0.05800
C1591       C  0.22122935  0.85630258  0.64542498     0.02900
C1592       C  0.22666992  0.88778866  0.65411174    -0.13300
C1593       C  0.24433154  0.90692259  0.63373251     0.00400
C1594       C  0.26006976  0.89340643  0.60974423    -0.11800
C1595       C  0.24546873  0.86911741  0.59571676     0.02900
C1596       C  0.22790585  0.84812496  0.61412030    -0.11200
H1597       H  0.21686958  0.89714290  0.67532797     0.08500
H1598       H  0.27677483  0.90709788  0.59650874     0.06000
H1599       H  0.21896685  0.82678673  0.60428312     0.05800
C1600       C  0.35541616  0.72206159  0.64483401     0.02900
C1601       C  0.38708701  0.72674364  0.65323966    -0.13300
C1602       C  0.40655755  0.74405009  0.63284125     0.00400
C1603       C  0.39334375  0.76008969  0.60899883    -0.11800
C1604       C  0.36838432  0.74644324  0.59522232     0.02900
C1605       C  0.34714083  0.72926359  0.61372582    -0.11200
H1606       H  0.39630225  0.71671404  0.67432866     0.08500
H1607       H  0.40732704  0.77656523  0.59579899     0.06000
H1608       H  0.32548068  0.72096752  0.60407471     0.05800
O1609       O  0.20557368  0.85542800  0.99628726    -0.73200
O1610       O  0.29828081  0.85588634  0.50764912    -0.74200
O1611       O  0.24603526  0.84703849  0.54629146    -0.62800
O1612       O  0.25801346  0.84825369  0.95743611    -0.71200
O1613       O  0.25712215  0.89987640  0.95614780    -0.70800
O1614       O  0.24611372  0.89862395  0.54887057    -0.62000
O1615       O  0.29629321  0.90747893  0.50809654    -0.74500
O1616       O  0.20667562  0.90702322  0.99720083    -0.73300
Cu1617     Cu  0.25197966  0.84956649  0.50189321     1.04600
Cu1618     Cu  0.25152697  0.90541450  0.50260753     1.04300
C1619       C  0.19160075  0.88209528  0.99582986     0.93000
C1620       C  0.31176706  0.88276793  0.50879652     0.92100
C1621       C  0.24516934  0.87155360  0.56198482     0.84300
C1622       C  0.25860829  0.87316194  0.94235810     0.90600
O1623       O  0.40591012  0.79703272  0.50711891    -0.73200
O1624       O  0.40508305  0.70790096  0.99612845    -0.74200
O1625       O  0.39796644  0.75793567  0.95533236    -0.62800
O1626       O  0.39725707  0.74720026  0.54790284    -0.71200
O1627       O  0.34565383  0.74767002  0.54608273    -0.70800
O1628       O  0.34634299  0.75867204  0.95695263    -0.62000
O1629       O  0.35345335  0.70679974  0.99610246    -0.74500
O1630       O  0.35431432  0.79936434  0.50686142    -0.73300
Cu1631     Cu  0.40368024  0.75249858  0.50164107     1.04600
Cu1632     Cu  0.34781421  0.75314669  0.50151427     1.04300
C1633       C  0.38129533  0.81261638  0.50782662     0.93000
C1634       C  0.38012666  0.69290480  0.99509640     0.92100
C1635       C  0.37123122  0.75922898  0.94170786     0.84300
C1636       C  0.37033700  0.74650937  0.56142296     0.90600
C1637       C  0.39630861  0.89625291  0.53113565     0.02900
C1638       C  0.40444361  0.86489487  0.52476086    -0.13300
C1639       C  0.38347434  0.84638033  0.50745465     0.00400
C1640       C  0.35909325  0.86028297  0.49288836    -0.11800
C1641       C  0.34568400  0.88458696  0.50820812     0.02900
C1642       C  0.36488130  0.90502097  0.52557398    -0.11200
H1643       H  0.42578169  0.85510457  0.53370530     0.08500
H1644       H  0.34538999  0.84694756  0.97638887     0.06000
H1645       H  0.35560151  0.92638072  0.53507531     0.05800
C1646       C  0.35761798  0.78259171  0.85774480     0.02900
C1647       C  0.38896560  0.77647668  0.84917634    -0.13300
C1648       C  0.40776943  0.75902804  0.86980320     0.00400
C1649       C  0.39417744  0.74420978  0.89431588    -0.11800
C1650       C  0.36966182  0.75903083  0.90790216     0.02900
C1651       C  0.34904272  0.77648077  0.88909238    -0.11200
H1652       H  0.39852151  0.78569951  0.82777816     0.08500
H1653       H  0.40769835  0.72770253  0.90784113     0.06000
H1654       H  0.32764473  0.78570822  0.89864436     0.05800
C1655       C  0.14528442  0.85628439  0.72138571     0.02900
C1656       C  0.15396601  0.88776882  0.72684139    -0.13300
C1657       C  0.13358576  0.90689756  0.74451190     0.00400
C1658       C  0.10960031  0.89337680  0.76024475    -0.11800
C1659       C  0.09557849  0.86908968  0.74563336     0.02900
C1660       C  0.11398380  0.84810346  0.72806024    -0.11200
H1661       H  0.17517901  0.89712681  0.71704379     0.08500
H1662       H  0.09636240  0.90706524  0.77695334     0.06000
H1663       H  0.10415027  0.82676791  0.71911120     0.05800
O1664       O  0.45730069  0.84824685  0.75814577    -0.73200
O1665       O  0.04615609  0.84701454  0.74619037    -0.74200
O1666       O  0.00750045  0.85585895  0.79843072    -0.62800
O1667       O  0.49616582  0.85542745  0.70571301    -0.71200
O1668       O  0.49706992  0.90702237  0.70684040    -0.70800
O1669       O  0.00796726  0.90745186  0.79645824    -0.62000
O1670       O  0.04873619  0.89859973  0.74627557    -0.74500
O1671       O  0.45602144  0.89987038  0.75728910    -0.73300
Cu1672     Cu  0.00175804  0.84955031  0.75212287     1.04600
Cu1673     Cu  0.00247794  0.90539872  0.75169208     1.04300
C1674       C  0.44222793  0.87315927  0.75875940     0.93000
C1675       C  0.06184903  0.87152793  0.74532940     0.92100
C1676       C  0.00865264  0.88273799  0.81192558     0.84300
C1677       C  0.49570416  0.88210047  0.69175228     0.90600
O1678       O  0.45681500  0.75863932  0.84648554    -0.73200
O1679       O  0.04593069  0.74760926  0.84578098    -0.74200
O1680       O  0.49594894  0.70675182  0.85360960    -0.62800
O1681       O  0.00672715  0.79932132  0.85445412    -0.71200
O1682       O  0.00699700  0.79699692  0.90605407    -0.70800
O1683       O  0.49597796  0.70788047  0.90524340    -0.62000
O1684       O  0.04776316  0.74715243  0.89738811    -0.74500
O1685       O  0.45519691  0.75792464  0.89811351    -0.73300
Cu1686     Cu  0.00136958  0.75309942  0.84795391     1.04600
Cu1687     Cu  0.00150470  0.75246958  0.90382610     1.04300
C1688       C  0.44157273  0.75921383  0.87137566     0.93000
C1689       C  0.06127577  0.74645543  0.87046188     0.92100
C1690       C  0.49494065  0.69287219  0.88029227     0.84300
C1691       C  0.00770077  0.81257686  0.88143776     0.90600
C1692       C  0.03097814  0.89622308  0.89647418     0.02900
C1693       C  0.02541259  0.90499256  0.86504697    -0.13300
C1694       C  0.00805840  0.88455406  0.84584397     0.00400
C1695       C  0.99275049  0.86024400  0.85924777    -0.11800
C1696       C  0.00732648  0.84634098  0.88362222     0.02900
C1697       C  0.02462160  0.86485934  0.90460035    -0.11200
H1698       H  0.03490446  0.92635625  0.85577085     0.08500
H1699       H  0.47625556  0.84690682  0.84554138     0.06000
H1700       H  0.03357042  0.85506873  0.92593724     0.05800
C1701       C  0.14469606  0.72205178  0.85552255     0.02900
C1702       C  0.11358168  0.72922760  0.84725217    -0.13300
C1703       C  0.09507198  0.74640398  0.86849798     0.00400
C1704       C  0.10884590  0.76007523  0.89344723    -0.11800
C1705       C  0.13269344  0.74404953  0.90666534     0.02900
C1706       C  0.15310072  0.72674862  0.88719462    -0.11200
H1707       H  0.10393209  0.72091558  0.82559558     0.08500
H1708       H  0.09564021  0.77655072  0.90742830     0.06000
H1709       H  0.17419404  0.71673133  0.89641141     0.05800
C1710       C  0.35507414  0.64622132  0.72055016     0.02900
C1711       C  0.38649884  0.65499041  0.72611495    -0.13300
C1712       C  0.40569803  0.63456073  0.74348691     0.00400
C1713       C  0.39229400  0.61025605  0.75880573    -0.11800
C1714       C  0.36791152  0.59635432  0.74424469     0.02900
C1715       C  0.34694133  0.61486650  0.72693388    -0.11200
H1716       H  0.39577566  0.67634863  0.71661169     0.08500
H1717       H  0.40599947  0.59692173  0.77530581     0.06000
H1718       H  0.32560358  0.60507611  0.71799231     0.05800
O1719       O  0.39706658  0.54933022  0.74484608    -0.73200
O1720       O  0.39791124  0.95676290  0.75558991    -0.74200
O1721       O  0.40571913  0.99764029  0.70561777    -0.62800
O1722       O  0.40503375  0.50863383  0.79474997    -0.71200
O1723       O  0.35341030  0.50791043  0.79637758    -0.70400
O1724       O  0.35411589  0.99719285  0.70379969    -0.62000
O1725       O  0.34628167  0.95788147  0.75556429    -0.74500
O1726       O  0.34547029  0.54701472  0.74459712    -0.73300
Cu1727     Cu  0.40355937  0.50311007  0.75019007     1.04600
Cu1728     Cu  0.34769272  0.50248081  0.75006776     1.04300
C1729       C  0.37008714  0.56259024  0.74388276     0.93000
C1730       C  0.37123543  0.94287677  0.75659213     0.92100
C1731       C  0.38103552  0.99649799  0.69027778     0.84300
C1732       C  0.38014779  0.50919934  0.80999771     0.90600
O1733       O  0.25541371  0.95787217  0.84643051    -0.73200
O1734       O  0.24439634  0.54698747  0.84562163    -0.74200
O1735       O  0.29619568  0.50791089  0.85357498    -0.62800
O1736       O  0.20362586  0.99715063  0.85427596    -0.71200
O1737       O  0.20544793  0.99760949  0.90588333    -0.70800
O1738       O  0.29456411  0.50863360  0.90520251    -0.62000
O1739       O  0.24465160  0.54931717  0.89722176    -0.74500
O1740       O  0.25543334  0.95674901  0.89806441    -0.73300
Cu1741     Cu  0.24988820  0.50246073  0.84785072     1.04600
Cu1742     Cu  0.25001053  0.50309586  0.90372309     1.04300
C1743       C  0.25644376  0.94286629  0.87138287     0.93000
C1744       C  0.24368577  0.56256960  0.87023689     0.92100
C1745       C  0.30981272  0.50920560  0.88031634     0.84300
C1746       C  0.19010759  0.99645563  0.88119955     0.90600
C1747       C  0.39375659  0.53260665  0.89394374     0.02900
C1748       C  0.40233516  0.52647701  0.86260088    -0.13300
C1749       C  0.38172411  0.50900917  0.84380216     0.00400
C1750       C  0.35721616  0.49418823  0.85739692    -0.11800
C1751       C  0.34361574  0.50902149  0.88189799     0.02900
C1752       C  0.36241094  0.52648956  0.90251481    -0.11200
H1753       H  0.42372932  0.53570414  0.85304342     0.08500
H1754       H  0.34369922  0.97766972  0.84387732     0.06000
H1755       H  0.35285008  0.53572413  0.92390678     0.05800
C1756       C  0.22040316  0.64621152  0.85518940     0.02900
C1757       C  0.22596253  0.65498596  0.88661632    -0.13300
C1758       C  0.24331714  0.63455027  0.90582390     0.00400
C1759       C  0.25863134  0.61023823  0.89242406    -0.11800
C1760       C  0.24406013  0.59633238  0.86804917     0.02900
C1761       C  0.22676541  0.61484744  0.84706707    -0.11200
H1762       H  0.21646553  0.67635082  0.89588876     0.08500
H1763       H  0.27512549  0.59690150  0.90613398     0.06000
H1764       H  0.21782030  0.60505389  0.82573022     0.05800
O1765       O  0.10400220  0.74489598  0.95424848    -0.73200
O1766       O  0.10401736  0.75690611  0.54703579    -0.74200
O1767       O  0.09644009  0.79569573  0.99457453    -0.62800
O1768       O  0.09537013  0.70641647  0.50683005    -0.71200
O1769       O  0.14694428  0.70404961  0.50657734    -0.70800
O1770       O  0.14804120  0.79685437  0.99461152    -0.62000
O1771       O  0.15560959  0.75639201  0.54520449    -0.74500
O1772       O  0.15558674  0.74418832  0.95589464    -0.73300
Cu1773     Cu  0.09783856  0.75101196  0.50067065     1.04600
Cu1774     Cu  0.15366951  0.75035324  0.50055722     1.04300
C1775       C  0.13085356  0.74346787  0.94058967     0.93000
C1776       C  0.13083182  0.75757335  0.56060726     0.92100
C1777       C  0.12136345  0.81078542  0.99365315     0.84300
C1778       C  0.11994161  0.69077784  0.50774961     0.90600
C1779       C  0.10668811  0.89633406  0.97422260     0.02900
C1780       C  0.13814644  0.90476730  0.98023414    -0.13300
C1781       C  0.15759595  0.88329854  0.99607599     0.00400
C1782       C  0.14450798  0.85775203  0.00948418    -0.11800
C1783       C  0.11995813  0.84474767  0.99440689     0.02900
C1784       C  0.09876971  0.86443985  0.97851776    -0.11200
H1785       H  0.14732851  0.92668589  0.97195656     0.08500
H1786       H  0.15825605  0.84357898  0.52523211     0.06000
H1787       H  0.07741294  0.85519122  0.96907650     0.05800
O1788       O  0.00673294  0.70644445  0.59553667    -0.73200
O1789       O  0.49442832  0.79571550  0.59659336    -0.74200
O1790       O  0.04690316  0.75695243  0.60416888    -0.62800
O1791       O  0.45413802  0.74489847  0.60415692    -0.71200
O1792       O  0.45577941  0.74421087  0.65574659    -0.70800
O1793       O  0.04507922  0.75645185  0.65576644    -0.62000
O1794       O  0.49446878  0.79688946  0.64819919    -0.74500
O1795       O  0.00648088  0.70409571  0.64711622    -0.73300
Cu1796     Cu  0.00054913  0.75103629  0.59799624     1.04600
Cu1797     Cu  0.00043741  0.75039522  0.65383191     1.04300
C1798       C  0.00765535  0.69081540  0.62011450     0.93000
C1799       C  0.49350390  0.81081132  0.62151664     0.92100
C1800       C  0.06047631  0.75762610  0.63098320     0.84300
C1801       C  0.44047887  0.74347341  0.63100900     0.90600
C1802       C  0.47405480  0.89635119  0.60685269     0.02900
C1803       C  0.47834722  0.86445768  0.59892899    -0.13300
C1804       C  0.49425717  0.84477089  0.62010516     0.00400
C1805       C  0.50935674  0.85778006  0.64464090    -0.11800
C1806       C  0.49594715  0.88331938  0.65774575     0.02900
C1807       C  0.48008622  0.90478629  0.63830978    -0.11200
H1808       H  0.46889082  0.85520629  0.57757817     0.08500
H1809       H  0.02511655  0.84360880  0.65837726     0.06000
H1810       H  0.47180887  0.92670285  0.64750133     0.05800
C1811       C  0.14542297  0.77842528  0.64554738     0.02900
C1812       C  0.15369014  0.77315071  0.61387391    -0.13300
C1813       C  0.13249003  0.75690840  0.59452830     0.00400
C1814       C  0.10769268  0.74233556  0.60784337    -0.11800
C1815       C  0.09439269  0.75694358  0.63263293     0.02900
C1816       C  0.11374909  0.77318786  0.65381985    -0.11200
H1817       H  0.17523710  0.78220664  0.60450329     0.08500
H1818       H  0.09385826  0.72634713  0.59402138     0.06000
H1819       H  0.10438717  0.78227012  0.67536248     0.05800
O1820       O  0.29407315  0.59825355  0.99351801    -0.73200
O1821       O  0.20521345  0.59700683  0.50547394    -0.74200
O1822       O  0.24387058  0.60585635  0.95323567    -0.62800
O1823       O  0.25520871  0.60541541  0.54595113    -0.71200
O1824       O  0.25428756  0.65701030  0.54483417    -0.70800
O1825       O  0.24338797  0.65744912  0.95521205    -0.62000
O1826       O  0.20262304  0.64859203  0.50539636    -0.74500
O1827       O  0.29533093  0.64987754  0.99438191    -0.73300
Cu1828     Cu  0.24961400  0.59954638  0.49954150     1.04600
Cu1829     Cu  0.24887681  0.65539378  0.49998033     1.04300
C1830       C  0.30913525  0.62317045  0.99290867     0.93000
C1831       C  0.18951544  0.62152034  0.50633786     0.92100
C1832       C  0.24271392  0.63273540  0.93974243     0.84300
C1833       C  0.25566741  0.63208591  0.55991717     0.90600
C1834       C  0.39360935  0.60917612  0.97053931     0.02900
C1835       C  0.40235650  0.64026328  0.97751189    -0.13300
C1836       C  0.38146137  0.65906833  0.99484330     0.00400
C1837       C  0.35633458  0.64562390  0.00871602    -0.11800
C1838       C  0.34293517  0.62157451  0.99315465     0.02900
C1839       C  0.36200815  0.60098328  0.97576528    -0.11200
H1840       H  0.42408768  0.64966524  0.96894064     0.08500
H1841       H  0.34251238  0.65901947  0.52518109     0.06000
H1842       H  0.35250369  0.57986216  0.96599967     0.05800
O1843       O  0.25692972  0.54570006  0.65509299    -0.73200
O1844       O  0.24464392  0.95642535  0.65615948    -0.74200
O1845       O  0.29723074  0.99488488  0.64754283    -0.62800
O1846       O  0.20446186  0.50693471  0.64751098    -0.71200
O1847       O  0.20630171  0.50642957  0.59591393    -0.70800
O1848       O  0.29559769  0.99417965  0.59595298    -0.62000
O1849       O  0.24490268  0.95406939  0.60458020    -0.74500
O1850       O  0.25690967  0.54686101  0.60348675    -0.73300
Cu1851     Cu  0.25081662  0.50102023  0.65369700     1.04600
Cu1852     Cu  0.25094249  0.50036756  0.59786114     1.04300
C1853       C  0.25786767  0.56078918  0.63016658     0.93000
C1854       C  0.24372872  0.94079267  0.63158307     0.92100
C1855       C  0.31089435  0.99345634  0.62069284     0.84300
C1856       C  0.19089708  0.50760854  0.62069223     0.90600
C1857       C  0.39596955  0.97208885  0.60685417     0.02900
C1858       C  0.40424251  0.97928315  0.63796531    -0.13300
C1859       C  0.38298827  0.99644567  0.65647778     0.00400
C1860       C  0.35802158  0.51008282  0.64271195    -0.11800
C1861       C  0.34481470  0.99404574  0.61886248     0.02900
C1862       C  0.36429449  0.97675666  0.59845506    -0.11200
H1863       H  0.42590741  0.97099158  0.64761207     0.08500
H1864       H  0.34403050  0.52655032  0.65591698     0.06000
H1865       H  0.35508288  0.96672782  0.57736436     0.05800
C1866       C  0.27733173  0.64632628  0.64481878     0.02900
C1867       C  0.27303371  0.61443504  0.65274480    -0.13300
C1868       C  0.25712388  0.59474943  0.63156920     0.00400
C1869       C  0.24203220  0.60775724  0.60702704    -0.11800
C1870       C  0.25543732  0.63329744  0.59392458     0.02900
C1871       C  0.27129921  0.65476139  0.61336145    -0.11200
H1872       H  0.28248508  0.60518407  0.67409848     0.08500
H1873       H  0.22627335  0.59358760  0.59329006     0.06000
H1874       H  0.27957434  0.67667727  0.60417071     0.05800
O1875       O  0.15494028  0.54567949  0.75707216    -0.73200
O1876       O  0.15600428  0.95640031  0.74482793    -0.74200
O1877       O  0.14735746  0.50687901  0.70461887    -0.62800
O1878       O  0.14737807  0.99488823  0.79740377    -0.71200
O1879       O  0.09579327  0.99419547  0.79576122    -0.70800
O1880       O  0.09576524  0.50637895  0.70645439    -0.62000
O1881       O  0.10442978  0.95404692  0.74508572    -0.74500
O1882       O  0.10333936  0.54685331  0.75703710    -0.73300
Cu1883     Cu  0.15353849  0.50099461  0.75098506     1.04600
Cu1884     Cu  0.09770738  0.50035134  0.75110210     1.04300
C1885       C  0.13001883  0.56077686  0.75799224     0.93000
C1886       C  0.13143134  0.94076824  0.74391454     0.92100
C1887       C  0.12054191  0.50755170  0.69104967     0.84300
C1888       C  0.12052741  0.99346896  0.81106439     0.90600
C1889       C  0.10668224  0.97206789  0.89613444     0.02900
C1890       C  0.09827982  0.97676167  0.86446121    -0.13300
C1891       C  0.11868947  0.99405384  0.84498861     0.00400
C1892       C  0.14254030  0.51007533  0.85820819    -0.11800
C1893       C  0.15631029  0.99640608  0.88315731     0.02900
C1894       C  0.13779709  0.97923889  0.90440535    -0.11200
H1895       H  0.07718646  0.96674743  0.85524472     0.08500
H1896       H  0.15574807  0.52654474  0.84422523     0.06000
H1897       H  0.14744468  0.97092926  0.92606395     0.05800
O1898       O  0.00525555  0.64861882  0.70282177    -0.73200
O1899       O  0.49426316  0.64986550  0.79554137    -0.74200
O1900       O  0.04470304  0.65701574  0.75448196    -0.62800
O1901       O  0.45508145  0.65746020  0.74360147    -0.71200
O1902       O  0.45310962  0.60586736  0.74405311    -0.70800
O1903       O  0.04582072  0.60542038  0.75537550    -0.62000
O1904       O  0.49339972  0.59824224  0.79425189    -0.74500
O1905       O  0.00533830  0.59703275  0.70538827    -0.73300
Cu1906     Cu  0.99984954  0.65540303  0.74908382     1.04600
Cu1907     Cu  0.99941399  0.59955536  0.74979055     1.04300
C1908       C  0.00619819  0.62155145  0.68970068     0.93000
C1909       C  0.49279204  0.62315115  0.80933028     0.92100
C1910       C  0.05978625  0.63208894  0.75583560     0.84300
C1911       C  0.43961523  0.63274680  0.74290371     0.90600
C1912       C  0.47036587  0.60915975  0.89378551     0.02900
C1913       C  0.47733254  0.64024846  0.90253224    -0.13300
C1914       C  0.49469110  0.65903802  0.88164853     0.00400
C1915       C  0.50859802  0.64557547  0.85654726    -0.11800
C1916       C  0.49303743  0.62153581  0.84313117     0.02900
C1917       C  0.47562225  0.60095609  0.86218903    -0.11200
H1918       H  0.46873837  0.64966241  0.92425214     0.08500
H1919       H  0.02507794  0.65896228  0.84273752     0.06000
H1920       H  0.46585750  0.57983838  0.85267544     0.05800
C1921       C  0.14469969  0.64632129  0.77742747     0.02900
C1922       C  0.15261775  0.61442579  0.77312816    -0.13300
C1923       C  0.13142912  0.59473909  0.75723570     0.00400
C1924       C  0.10688085  0.60775067  0.74215830    -0.11800
C1925       C  0.09379116  0.63329531  0.75557477     0.02900
C1926       C  0.11324049  0.65475913  0.77141967    -0.11200
H1927       H  0.17397345  0.60517189  0.78257013     0.08500
H1928       H  0.09313203  0.59358113  0.72640967     0.06000
H1929       H  0.10405716  0.67667646  0.77970413     0.05800
C1930       C  0.03014388  0.60631620  0.60625985     0.02900
C1931       C  0.02471558  0.63780812  0.59758366    -0.13300
C1932       C  0.00705758  0.65694528  0.61796678     0.00400
C1933       C  0.99131227  0.64343085  0.64194929    -0.11800
C1934       C  0.00589802  0.61912539  0.65596807     0.02900
C1935       C  0.02345664  0.59813059  0.63755936    -0.11200
H1936       H  0.03452080  0.64716350  0.57637120     0.08500
H1937       H  0.47461021  0.65712704  0.65518701     0.06000
H1938       H  0.03238628  0.57678399  0.64738993     0.05800
C1939       C  0.10595620  0.52843206  0.60611986     0.02900
C1940       C  0.09768482  0.52314642  0.63778946    -0.13300
C1941       C  0.11888004  0.50688826  0.65712916     0.00400
C1942       C  0.14367521  0.49231105  0.64380945    -0.11800
C1943       C  0.15698151  0.50692914  0.61903091     0.02900
C1944       C  0.13763063  0.52318952  0.59784899    -0.11200
H1945       H  0.07613853  0.53220621  0.64716227     0.08500
H1946       H  0.15750415  0.97631414  0.65762589     0.06000
H1947       H  0.14699679  0.53227921  0.57631239     0.05800
C1948       C  0.10608333  0.60629752  0.53028822     0.02900
C1949       C  0.09740461  0.63778479  0.52483335    -0.13300
C1950       C  0.11778431  0.65690659  0.50715840     0.00400
C1951       C  0.14176457  0.64337623  0.49142136    -0.11800
C1952       C  0.15578609  0.61908551  0.50603137     0.02900
C1953       C  0.13738168  0.59810688  0.52360898    -0.11200
H1954       H  0.07619404  0.64714947  0.53463367     0.08500
H1955       H  0.15500161  0.65705939  0.97471003     0.06000
H1956       H  0.14721439  0.57676954  0.53255788     0.05800
C1957       C  0.20852145  0.70997631  0.79158044     0.86200
C1958       C  0.18593170  0.72748795  0.81379624    -0.54000
C1959       C  0.16721208  0.70895267  0.83202350     0.09200
C1960       C  0.17233226  0.67392192  0.82622133     0.20100
C1961       C  0.22593425  0.68732214  0.81360526    -0.54700
C1962       C  0.20734199  0.66868236  0.83181986     0.09300
C1963       C  0.18663510  0.68821867  0.77281062    -0.54300
C1964       C  0.16764632  0.66930473  0.79081522     0.09800
H1965       H  0.18524475  0.75266277  0.81530592     0.14400
H1966       H  0.15721573  0.65883903  0.84077207     0.00100
H1967       H  0.25110575  0.68653965  0.81501263     0.14700
H1968       H  0.18615900  0.68772449  0.74762182     0.14400
C1969       C  0.29146728  0.70998230  0.70864500     0.86200
C1970       C  0.27270775  0.68822563  0.68675139    -0.54000
C1971       C  0.29071738  0.66931250  0.66776434     0.09200
C1972       C  0.32612028  0.67392839  0.67246113     0.20100
C1973       C  0.31348778  0.68733011  0.72606457    -0.54700
C1974       C  0.33171010  0.66869117  0.70747626     0.09300
C1975       C  0.31368414  0.72749456  0.68606127    -0.54300
C1976       C  0.33191824  0.70895964  0.66734492     0.09800
H1977       H  0.24752125  0.68773021  0.68626999     0.14400
H1978       H  0.34067537  0.65884506  0.65734605     0.00100
H1979       H  0.31488662  0.68654842  0.75123870     0.14700
H1980       H  0.31518926  0.75266951  0.68537579     0.14400
C1981       C  0.29427827  0.79558797  0.79440469     0.86200
C1982       C  0.31636045  0.77766092  0.81648296    -0.54000
C1983       C  0.33485980  0.79600683  0.83498207     0.09200
C1984       C  0.32969900  0.83118217  0.82982633     0.20100
C1985       C  0.27624072  0.81772887  0.81653614    -0.54700
C1986       C  0.29450144  0.83632670  0.83504408     0.09300
C1987       C  0.31640376  0.81773019  0.77636423    -0.54300
C1988       C  0.33491186  0.83632781  0.79462616     0.09800
H1989       H  0.31723318  0.75246842  0.81735491     0.14400
H1990       H  0.34455877  0.84609546  0.84468781     0.00100
H1991       H  0.25104663  0.81855582  0.81744284     0.14700
H1992       H  0.31730682  0.81855730  0.75116803     0.14400
C1993       C  0.20894381  0.79259110  0.70906919     0.86200
C1994       C  0.18716152  0.77383042  0.68727629    -0.54000
C1995       C  0.16830795  0.79185005  0.66842802     0.09200
C1996       C  0.17299111  0.82724671  0.67312849     0.20100
C1997       C  0.22651255  0.81470308  0.68648436    -0.54700
C1998       C  0.20802702  0.83292903  0.66789628     0.09300
C1999       C  0.18635195  0.81469042  0.72664876    -0.54300
C2000       C  0.16775769  0.83291665  0.70817022     0.09800
H2001       H  0.18662056  0.74864344  0.68672737     0.14400
H2002       H  0.15794680  0.84179429  0.65808946     0.00100
H2003       H  0.25169061  0.81614024  0.68569226     0.14700
H2004       H  0.18556101  0.81612045  0.75182945     0.14400
C2005       C  0.27262856  0.77379244  0.77275622     0.86200
C2006       C  0.25079686  0.79187677  0.75092422    -0.54000
C2007       C  0.23177343  0.77459484  0.73189591     0.09200
C2008       C  0.23713988  0.73827939  0.73725811     0.20100
C2009       C  0.25066338  0.75188496  0.79086390    -0.54700
C2010       C  0.23159337  0.73284987  0.77358793     0.09300
C2011       C  0.29073818  0.75188772  0.75078886    -0.54300
C2012       C  0.27346809  0.73285309  0.73171490     0.09800
H2013       H  0.25049226  0.81710238  0.75062355     0.14400
H2014       H  0.22231040  0.72346523  0.72242318     0.00100
H2015       H  0.25027862  0.75157464  0.81608865     0.14700
H2016       H  0.31596098  0.75157832  0.75040583     0.14400
C2017       C  0.54243451  0.04260868  0.04259965     0.86200
C2018       C  0.52486483  0.06471936  0.06518896    -0.54000
C2019       C  0.54334987  0.08294366  0.08377683     0.09200
C2020       C  0.57838611  0.07726056  0.07854024     0.20100
C2021       C  0.56502132  0.06470904  0.02502010    -0.54700
C2022       C  0.58361471  0.08293374  0.04349866     0.09300
C2023       C  0.56422112  0.02384586  0.06438755    -0.54300
C2024       C  0.58307416  0.04186288  0.08323555     0.09800
H2025       H  0.49968666  0.06615674  0.06598424     0.14400
H2026       H  0.59343009  0.09180596  0.09357973     0.00100
H2027       H  0.56581057  0.06613979  0.99983942     0.14700
H2028       H  0.56476436  0.99865886  0.06493466     0.14400
C2029       C  0.95709951  0.04560970  0.45727021     0.86200
C2030       C  0.97513641  0.06774450  0.43513686    -0.54000
C2031       C  0.95687542  0.08634277  0.41662785     0.09200
C2032       C  0.92167728  0.08120305  0.42184563     0.20100
C2033       C  0.93497449  0.06775707  0.47530918    -0.54700
C2034       C  0.91646607  0.08635469  0.45704551     0.09300
C2035       C  0.93501808  0.02768225  0.43519537    -0.54300
C2036       C  0.91651672  0.04602660  0.41669543     0.09800
H2037       H  0.00033037  0.06856801  0.43423050     0.14400
H2038       H  0.90681652  0.09611600  0.40698288     0.00100
H2039       H  0.93407083  0.06858662  0.50050525     0.14700
H2040       H  0.93414634  0.00248959  0.43432706     0.14400
C2041       C  0.95991195  0.46000657  0.04303441     0.86200
C2042       C  0.97867464  0.43824546  0.06492302    -0.54000
C2043       C  0.96066747  0.41933451  0.08391061     0.09200
C2044       C  0.92526484  0.42395594  0.07922060     0.20100
C2045       C  0.93788797  0.43735859  0.02561660    -0.54700
C2046       C  0.91966902  0.41872149  0.04420689     0.09300
C2047       C  0.93769759  0.47752109  0.06562426    -0.54300
C2048       C  0.91946739  0.45898671  0.08434242     0.09800
H2049       H  0.50386117  0.43774610  0.06540137     0.14400
H2050       H  0.91071290  0.40887361  0.09433665     0.00100
H2051       H  0.93648579  0.43657718  0.00044265     0.14700
H2052       H  0.93619235  0.00269947  0.06630723     0.14400
C2053       C  0.54285793  0.45999556  0.46008475     0.86200
C2054       C  0.56544336  0.47750731  0.43786690    -0.54000
C2055       C  0.58416426  0.45897197  0.41963614     0.09200
C2056       C  0.57904785  0.42394092  0.42543622     0.20100
C2057       C  0.52544551  0.43734240  0.43805984    -0.54700
C2058       C  0.54403781  0.41870159  0.41984166     0.09300
C2059       C  0.56474930  0.43823653  0.47884976    -0.54300
C2060       C  0.58373829  0.41932272  0.46084144     0.09800
H2061       H  0.56612864  0.00268026  0.43635564     0.14400
H2062       H  0.59416483  0.40885751  0.41088327     0.00100
H2063       H  0.50027397  0.43655969  0.43665704     0.14700
H2064       H  0.56522768  0.43774043  0.00403847     0.14400
C2065       C  0.97874913  0.02381361  0.47891773     0.86200
C2066       C  0.50058052  0.04189635  0.00074785    -0.54000
C2067       C  0.51960596  0.02461297  0.01977436     0.09200
C2068       C  0.51423909  0.48829707  0.01441637     0.20100
C2069       C  0.50071352  0.00190377  0.46080754    -0.54700
C2070       C  0.51978455  0.48286836  0.47808464     0.09300
C2071       C  0.96064124  0.00191241  0.00088611    -0.54300
C2072       C  0.97791047  0.48287432  0.01996294     0.09800
H2073       H  0.50088328  0.06712195  0.00104872     0.14400
H2074       H  0.52907101  0.47348127  0.02924940     0.00100
H2075       H  0.50109642  0.00159402  0.43558264     0.14700
H2076       H  0.93541838  0.00160729  0.00127106     0.14400
C2077       C  0.85775683  0.35914980  0.28114154     0.02900
C2078       C  0.84900441  0.39023842  0.27417621    -0.13300
C2079       C  0.86989246  0.40904260  0.25683985     0.00400
C2080       C  0.89501295  0.39559547  0.24295366    -0.11800
C2081       C  0.90842401  0.37155180  0.25851573     0.02900
C2082       C  0.88935946  0.35095857  0.27590875    -0.11200
H2083       H  0.82727596  0.39964205  0.28275709     0.08500
H2084       H  0.90882814  0.40899114  0.22648515     0.06000
H2085       H  0.89887134  0.32983885  0.28567320     0.05800
C2086       C  0.78100913  0.35914521  0.35789900     0.02900
C2087       C  0.77576653  0.35095213  0.38950077    -0.13300
C2088       C  0.75835972  0.37154162  0.40856096     0.00400
C2089       C  0.74279222  0.39557755  0.39514313    -0.11800
C2090       C  0.75669088  0.40903131  0.37003459     0.02900
C2091       C  0.77404110  0.39023327  0.34914859    -0.11200
H2092       H  0.78553413  0.32983506  0.39901565     0.08500
H2093       H  0.72631426  0.40896933  0.40895354     0.06000
H2094       H  0.78262878  0.39964056  0.32742422     0.05800
C2095       C  0.72122568  0.35630506  0.14542914     0.02900
C2096       C  0.72666719  0.38779106  0.15411570    -0.13300
C2097       C  0.74432918  0.40692433  0.13373614     0.00400
C2098       C  0.76006685  0.39340737  0.10974797    -0.11800
C2099       C  0.74546489  0.36911871  0.09572085     0.02900
C2100       C  0.72790153  0.34812702  0.11412456    -0.11200
H2101       H  0.71686745  0.39714569  0.17533209     0.08500
H2102       H  0.77677237  0.40709808  0.09651223     0.06000
H2103       H  0.71896195  0.32678891  0.10428767     0.05800
C2104       C  0.85541580  0.22205937  0.14483459     0.02900
C2105       C  0.88708721  0.22673951  0.15323941    -0.13300
C2106       C  0.90655801  0.24404583  0.13284103     0.00400
C2107       C  0.89334407  0.26008703  0.10899979    -0.11800
C2108       C  0.86838408  0.24644168  0.09522323     0.02900
C2109       C  0.84714009  0.22926260  0.11372675    -0.11200
H2110       H  0.89630259  0.21670893  0.17432789     0.08500
H2111       H  0.90732761  0.27656261  0.09580027     0.06000
H2112       H  0.82547949  0.22096765  0.10407586     0.05800
O2113       O  0.70557001  0.35542870  0.49629130    -0.73200
O2114       O  0.79827666  0.35588491  0.00765491    -0.74200
O2115       O  0.74603032  0.34703906  0.04629609    -0.62800
O2116       O  0.75801027  0.34825265  0.45744082    -0.71200
O2117       O  0.75711970  0.39987536  0.45615205    -0.70800
O2118       O  0.74611059  0.39862459  0.04887452    -0.62000
O2119       O  0.79629053  0.40747757  0.00810101    -0.74500
O2120       O  0.70667297  0.40702394  0.49720483    -0.73300
Cu2121     Cu  0.75197559  0.34956620  0.00189803     1.04600
Cu2122     Cu  0.75152426  0.40541422  0.00261162     1.04300
C2123       C  0.69159762  0.38209626  0.49583403     0.93000
C2124       C  0.81176364  0.38276612  0.00880197     0.92100
C2125       C  0.74516530  0.37155445  0.06198906     0.84300
C2126       C  0.75860568  0.37316076  0.44236254     0.90600
O2127       O  0.90590981  0.29703126  0.00712019    -0.73200
O2128       O  0.90508683  0.20789945  0.49612933    -0.74200
O2129       O  0.89796894  0.25793440  0.45533329    -0.62800
O2130       O  0.89725765  0.24719881  0.04790408    -0.71200
O2131       O  0.84565448  0.24766532  0.04608302    -0.70800
O2132       O  0.84634548  0.25866915  0.45695322    -0.62000
O2133       O  0.85345722  0.20679599  0.49610177    -0.74500
O2134       O  0.85431392  0.29936038  0.00686293    -0.73300
Cu2135     Cu  0.90368186  0.25249712  0.00164223     1.04600
Cu2136     Cu  0.84781592  0.25314265  0.00151466     1.04300
C2137       C  0.88129428  0.31261371  0.00782834     0.93000
C2138       C  0.88013116  0.19290222  0.49509590     0.92100
C2139       C  0.87123378  0.25922737  0.44170865     0.84300
C2140       C  0.87033737  0.24650691  0.06142381     0.90600
C2141       C  0.89630650  0.39625041  0.03113850     0.02900
C2142       C  0.90444165  0.36489257  0.02476279    -0.13300
C2143       C  0.88347163  0.34637777  0.00745774     0.00400
C2144       C  0.85908899  0.36027986  0.99289359    -0.11800
C2145       C  0.84568062  0.38458408  0.00821374     0.02900
C2146       C  0.86487877  0.40501814  0.02557861    -0.11200
H2147       H  0.92578048  0.35510262  0.03370572     0.08500
H2148       H  0.84538501  0.34694442  0.47639475     0.06000
H2149       H  0.85559932  0.42637791  0.03508042     0.05800
C2150       C  0.85761848  0.28259030  0.35774568     0.02900
C2151       C  0.88896580  0.27647519  0.34917606    -0.13300
C2152       C  0.90777047  0.25902699  0.36980256     0.00400
C2153       C  0.89417939  0.24420901  0.39431596    -0.11800
C2154       C  0.86966429  0.25903019  0.40790296     0.02900
C2155       C  0.84904458  0.27647998  0.38909374    -0.11200
H2156       H  0.89852090  0.28569790  0.32777752     0.08500
H2157       H  0.90770068  0.22770185  0.40784092     0.06000
H2158       H  0.82764691  0.28570759  0.39864647     0.05800
C2159       C  0.64528160  0.35628325  0.22139047     0.02900
C2160       C  0.65396449  0.38776675  0.22684945    -0.13300
C2161       C  0.63358372  0.40689545  0.24451940     0.00400
C2162       C  0.60959577  0.39337509  0.26024875    -0.11800
C2163       C  0.59557417  0.36908933  0.24563478     0.02900
C2164       C  0.61397995  0.34810347  0.22806168    -0.11200
H2165       H  0.67517877  0.39712424  0.21705423     0.08500
H2166       H  0.59635702  0.40706323  0.27695696     0.06000
H2167       H  0.60414615  0.32676891  0.21911048     0.05800
O2168       O  0.95729642  0.34824653  0.25814885    -0.73200
O2169       O  0.54615179  0.34701415  0.24619337    -0.74200
O2170       O  0.50749611  0.35585942  0.29843417    -0.62800
O2171       O  0.99616119  0.35542568  0.20571659    -0.71200
O2172       O  0.99706481  0.40702069  0.20684263    -0.70800
O2173       O  0.50796395  0.40745223  0.29646042    -0.62000
O2174       O  0.54873197  0.39859936  0.24627639    -0.74500
O2175       O  0.95601764  0.39987010  0.25729191    -0.73300
Cu2176     Cu  0.50175364  0.34954980  0.25212624     1.04600
Cu2177     Cu  0.50247385  0.40539818  0.25169411     1.04300
C2178       C  0.94222392  0.37315911  0.25876200     0.93000
C2179       C  0.56184472  0.37152752  0.24533073     0.92100
C2180       C  0.50864890  0.38273874  0.31192845     0.84300
C2181       C  0.99569936  0.38209832  0.19175524     0.90600
O2182       O  0.95681620  0.25864219  0.34648468    -0.73200
O2183       O  0.54593202  0.24761315  0.34578120    -0.74200
O2184       O  0.99595047  0.20675493  0.35360593    -0.62800
O2185       O  0.50672790  0.29932441  0.35445598    -0.71200
O2186       O  0.50699649  0.29699768  0.40605583    -0.70800
O2187       O  0.99597998  0.20788016  0.40523978    -0.62000
O2188       O  0.54776425  0.24715447  0.39738833    -0.74500
O2189       O  0.95519797  0.25792367  0.39811257    -0.73300
Cu2190     Cu  0.50137089  0.25310285  0.34795343     1.04600
Cu2191     Cu  0.50150569  0.25246988  0.40382544     1.04300
C2192       C  0.94157379  0.25921405  0.37137479     0.93000
C2193       C  0.56127694  0.24645853  0.37046217     0.92100
C2194       C  0.99494226  0.19287347  0.38028763     0.84300
C2195       C  0.50770049  0.31257881  0.38144020     0.90600
C2196       C  0.53097620  0.39622541  0.39647666     0.02900
C2197       C  0.52540986  0.40499452  0.36504938    -0.13300
C2198       C  0.50805524  0.38455563  0.34584702     0.00400
C2199       C  0.49274764  0.36024585  0.35925179    -0.11800
C2200       C  0.50732475  0.34634294  0.38362573     0.02900
C2201       C  0.52462047  0.36486155  0.40460315    -0.11200
H2202       H  0.53490143  0.42635805  0.35577283     0.08500
H2203       H  0.97625244  0.34690847  0.34554603     0.06000
H2204       H  0.53357029  0.35507108  0.42593962     0.05800
C2205       C  0.64469610  0.22205309  0.35552282     0.02900
C2206       C  0.61358208  0.22923006  0.34725247    -0.13300
C2207       C  0.59507303  0.24640688  0.36849839     0.00400
C2208       C  0.60884723  0.26007742  0.39344789    -0.11800
C2209       C  0.63269479  0.24405133  0.40666561     0.02900
C2210       C  0.65310131  0.22674975  0.38719473    -0.11200
H2211       H  0.60393223  0.22091846  0.32559597     0.08500
H2212       H  0.59564176  0.27655282  0.40742928     0.06000
H2213       H  0.67419441  0.21673183  0.39641126     0.05800
C2214       C  0.85507294  0.14621994  0.22055123     0.02900
C2215       C  0.88649889  0.15498762  0.22611101    -0.13300
C2216       C  0.90569930  0.13455827  0.24348192     0.00400
C2217       C  0.89229604  0.11025551  0.25880458    -0.11800
C2218       C  0.86791076  0.09635403  0.24424794     0.02900
C2219       C  0.84693922  0.11486607  0.22693855    -0.11200
H2220       H  0.89577563  0.17634466  0.21660499     0.08500
H2221       H  0.90600307  0.09692168  0.27530363     0.06000
H2222       H  0.82560006  0.10507603  0.21800000     0.05800
O2223       O  0.89706601  0.04932987  0.24484636    -0.73200
O2224       O  0.89790986  0.45676402  0.25559735    -0.74200
O2225       O  0.90571959  0.49763736  0.20562221    -0.62800
O2226       O  0.90503465  0.00862931  0.29474656    -0.71200
O2227       O  0.85341129  0.00790432  0.29637450    -0.70400
O2228       O  0.85411633  0.49718955  0.20380387    -0.62000
O2229       O  0.84628030  0.45788358  0.25557198    -0.74500
O2230       O  0.84546976  0.04701402  0.24459869    -0.73300
Cu2231     Cu  0.90355960  0.00310935  0.25018621     1.04600
Cu2232     Cu  0.84769307  0.00247938  0.25006439     1.04300
C2233       C  0.87008646  0.06258985  0.24388503     0.93000
C2234       C  0.87123377  0.44287847  0.25660018     0.92100
C2235       C  0.88103604  0.49649404  0.19028221     0.84300
C2236       C  0.88014879  0.00919299  0.30999457     0.90600
O2237       O  0.75541472  0.45787099  0.34643433    -0.73200
O2238       O  0.74439338  0.04698817  0.34561954    -0.74200
O2239       O  0.79619432  0.00791316  0.35357108    -0.62800
O2240       O  0.70362703  0.49715026  0.35427865    -0.71200
O2241       O  0.70544898  0.49760868  0.40588600    -0.70800
O2242       O  0.79456337  0.00863405  0.40519861    -0.62000
O2243       O  0.74465037  0.04931736  0.39721973    -0.74500
O2244       O  0.75543513  0.45674862  0.39806826    -0.73300
Cu2245     Cu  0.74988652  0.00246184  0.34784769     1.04600
Cu2246     Cu  0.75000936  0.00309624  0.40371995     1.04300
C2247       C  0.75644545  0.44286551  0.37138689     0.93000
C2248       C  0.74368347  0.06256995  0.37023504     0.92100
C2249       C  0.80981174  0.00920757  0.38031228     0.84300
C2250       C  0.69010867  0.49645471  0.38120222     0.90600
C2251       C  0.89375814  0.03260488  0.39393860     0.02900
C2252       C  0.90233730  0.02647069  0.36259685    -0.13300
C2253       C  0.88172517  0.00900310  0.34379909     0.00400
C2254       C  0.85721485  0.99418636  0.35739421    -0.11800
C2255       C  0.84361501  0.00902326  0.38189348     0.02900
C2256       C  0.86241136  0.02649176  0.40250921    -0.11200
H2257       H  0.92373258  0.03569486  0.35303920     0.08500
H2258       H  0.84370174  0.47767139  0.34387904     0.06000
H2259       H  0.85285080  0.03572911  0.42389993     0.05800
C2260       C  0.72040250  0.14621233  0.35518939     0.02900
C2261       C  0.72596607  0.15498745  0.38661539    -0.13300
C2262       C  0.74332163  0.13455119  0.40582162     0.00400
C2263       C  0.75863296  0.11023800  0.39242061    -0.11800
C2264       C  0.74405826  0.09633250  0.36804760     0.02900
C2265       C  0.72676206  0.11484781  0.34706712    -0.11200
H2266       H  0.71647126  0.17635304  0.39588831     0.08500
H2267       H  0.77512780  0.09690057  0.40612902     0.06000
H2268       H  0.71781428  0.10505429  0.32573146     0.05800
O2269       O  0.60400392  0.24489656  0.45424876    -0.73200
O2270       O  0.60401886  0.25690596  0.04703601    -0.74200
O2271       O  0.59644030  0.29569564  0.49457506    -0.62800
O2272       O  0.59537353  0.20641638  0.00682958    -0.71200
O2273       O  0.64694777  0.20405145  0.00657681    -0.70800
O2274       O  0.64804138  0.29685639  0.49461254    -0.62000
O2275       O  0.65561110  0.25639333  0.04520516    -0.74500
O2276       O  0.65558851  0.24419103  0.45589479    -0.73300
Cu2277     Cu  0.59784031  0.25101194  0.00067080     1.04600
Cu2278     Cu  0.65367127  0.25035528  0.00055756     1.04300
C2279       C  0.63085526  0.24346951  0.44058991     0.93000
C2280       C  0.63083317  0.25757388  0.06060777     0.92100
C2281       C  0.62136305  0.31078635  0.49365406     0.84300
C2282       C  0.61994559  0.19077866  0.00774851     0.90600
C2283       C  0.60668582  0.39633502  0.47422509     0.02900
C2284       C  0.63814370  0.40476880  0.48023813    -0.13300
C2285       C  0.65759286  0.38330007  0.49608039     0.00400
C2286       C  0.64450459  0.35775340  0.50948798    -0.11800
C2287       C  0.61995622  0.34474852  0.49440875     0.02900
C2288       C  0.59876813  0.36444043  0.47851883    -0.11200
H2289       H  0.64732574  0.42668759  0.47196124     0.08500
H2290       H  0.65825213  0.34358037  0.02523639     0.06000
H2291       H  0.57741214  0.35519137  0.46907606     0.05800
O2292       O  0.50673509  0.20644313  0.09553395    -0.73200
O2293       O  0.99442740  0.29571327  0.09659464    -0.74200
O2294       O  0.54690356  0.25695214  0.10416865    -0.62800
O2295       O  0.95413845  0.24489475  0.10415628    -0.71200
O2296       O  0.95577997  0.24420632  0.15574595    -0.70800
O2297       O  0.54507957  0.25644716  0.15576620    -0.62000
O2298       O  0.99446958  0.29688516  0.14820051    -0.74500
O2299       O  0.50648107  0.20409117  0.14711338    -0.73300
Cu2300     Cu  0.50054971  0.25103445  0.09799563     1.04600
Cu2301     Cu  0.50043791  0.25039055  0.15383141     1.04300
C2302       C  0.50765640  0.19081257  0.12011083     0.93000
C2303       C  0.99350392  0.31080808  0.12151851     0.92100
C2304       C  0.56047658  0.25762443  0.13098309     0.84300
C2305       C  0.94047938  0.24346899  0.13100841     0.90600
C2306       C  0.97405376  0.39634767  0.10685465     0.02900
C2307       C  0.97834756  0.36445440  0.09893091    -0.13300
C2308       C  0.99425632  0.34476767  0.12010802     0.00400
C2309       C  0.00935366  0.35777679  0.14464509    -0.11800
C2310       C  0.99594314  0.38331620  0.15774886     0.02900
C2311       C  0.98008303  0.40478277  0.13831206    -0.11200
H2312       H  0.96889280  0.35520302  0.07757927     0.08500
H2313       H  0.52511288  0.34360589  0.15838236     0.06000
H2314       H  0.97180479  0.42669916  0.14750318     0.05800
C2315       C  0.64542251  0.27842606  0.14554849     0.02900
C2316       C  0.65369048  0.27315144  0.11387516    -0.13300
C2317       C  0.63249095  0.25690898  0.09452895     0.00400
C2318       C  0.60769348  0.24233588  0.10784348    -0.11800
C2319       C  0.59439290  0.25694345  0.13263292     0.02900
C2320       C  0.61374853  0.27318817  0.15382020    -0.11200
H2321       H  0.67523768  0.28220752  0.10450503     0.08500
H2322       H  0.59385952  0.22634723  0.09402127     0.06000
H2323       H  0.60438600  0.28227011  0.17536272     0.05800
O2324       O  0.79407900  0.09825219  0.49351572    -0.73200
O2325       O  0.70521936  0.09700728  0.00547102    -0.74200
O2326       O  0.74387716  0.10585676  0.45323315    -0.62800
O2327       O  0.75521441  0.10541421  0.04594883    -0.71200
O2328       O  0.75429571  0.15700915  0.04483224    -0.70800
O2329       O  0.74339464  0.15744946  0.45521022    -0.62000
O2330       O  0.70263017  0.14859251  0.00539528    -0.74500
O2331       O  0.79533799  0.14987619  0.49437918    -0.73300
Cu2332     Cu  0.74962007  0.09954597  0.99953896     1.04600
Cu2333     Cu  0.74888415  0.15539338  0.99997844     1.04300
C2334       C  0.80914158  0.12316878  0.49290587     0.93000
C2335       C  0.68952190  0.12152110  0.00633609     0.92100
C2336       C  0.74272029  0.13273597  0.43974023     0.84300
C2337       C  0.75567386  0.13208458  0.05991509     0.90600
C2338       C  0.89361414  0.10917557  0.47053305     0.02900
C2339       C  0.90236164  0.14026223  0.47750755    -0.13300
C2340       C  0.88146728  0.15906576  0.49484157     0.00400
C2341       C  0.85634140  0.14561995  0.50871465    -0.11800
C2342       C  0.84294127  0.12157203  0.49315157     0.02900
C2343       C  0.86201334  0.10098227  0.47575974    -0.11200
H2344       H  0.92409232  0.14966492  0.46893593     0.08500
H2345       H  0.84251967  0.15901420  0.02518117     0.06000
H2346       H  0.85250849  0.07986180  0.46599293     0.05800
O2347       O  0.75692801  0.04569860  0.15509110    -0.73200
O2348       O  0.74464251  0.45642735  0.15616269    -0.74200
O2349       O  0.79723074  0.49488496  0.14754664    -0.62800
O2350       O  0.70446132  0.00693137  0.14750907    -0.71200
O2351       O  0.70630116  0.00642720  0.09591201    -0.70800
O2352       O  0.79559843  0.49417977  0.09595676    -0.62000
O2353       O  0.74490236  0.45407089  0.10458344    -0.74500
O2354       O  0.75690778  0.04686002  0.10348492    -0.73300
Cu2355     Cu  0.75081645  0.00101846  0.15369430     1.04600
Cu2356     Cu  0.75094168  0.00036634  0.09785841     1.04300
C2357       C  0.75786561  0.06078805  0.13016486     0.93000
C2358       C  0.74372750  0.44079444  0.13158641     0.92100
C2359       C  0.81089468  0.49345576  0.12069688     0.84300
C2360       C  0.69089657  0.00760547  0.12069030     0.90600
C2361       C  0.89596902  0.47208454  0.10685855     0.02900
C2362       C  0.90424236  0.47927814  0.13796974    -0.13300
C2363       C  0.88298873  0.49644116  0.15648231     0.00400
C2364       C  0.85802053  0.01008615  0.14270731    -0.11800
C2365       C  0.84481504  0.49404323  0.11886701     0.02900
C2366       C  0.86429415  0.47675359  0.09845947    -0.11200
H2367       H  0.92590709  0.47098595  0.14761633     0.08500
H2368       H  0.84402872  0.02655302  0.15591235     0.06000
H2369       H  0.85508226  0.46672558  0.07736853     0.05800
C2370       C  0.77733134  0.14632482  0.14481885     0.02900
C2371       C  0.77303109  0.11443376  0.15274475    -0.13300
C2372       C  0.75712241  0.09474848  0.13156783     0.00400
C2373       C  0.74203372  0.10775676  0.10702405    -0.11800
C2374       C  0.75544167  0.13329599  0.09392251     0.02900
C2375       C  0.77130260  0.15475951  0.11336063    -0.11200
H2376       H  0.78248031  0.10518252  0.17409945     0.08500
H2377       H  0.72627544  0.09358789  0.09328585     0.06000
H2378       H  0.77957973  0.17667483  0.10417031     0.05800
O2379       O  0.65494046  0.04568004  0.25707107    -0.73200
O2380       O  0.65600358  0.45639800  0.24483557    -0.74200
O2381       O  0.64735668  0.00688336  0.20461523    -0.62800
O2382       O  0.64737708  0.49489018  0.29740821    -0.71200
O2383       O  0.59579231  0.49419719  0.29576546    -0.70800
O2384       O  0.59576445  0.00638211  0.20645102    -0.62000
O2385       O  0.60442906  0.45404566  0.24509232    -0.74500
O2386       O  0.60333951  0.04685396  0.25703578    -0.73300
Cu2387     Cu  0.65353868  0.00099596  0.25098078     1.04600
Cu2388     Cu  0.59770751  0.00035220  0.25109828     1.04300
C2389       C  0.63001907  0.06077733  0.25799171     0.93000
C2390       C  0.63143032  0.44076631  0.24392234     0.92100
C2391       C  0.62054101  0.00755559  0.19104626     0.84300
C2392       C  0.62052638  0.49347168  0.31106880     0.90600
C2393       C  0.60668166  0.47206991  0.39613830     0.02900
C2394       C  0.59827843  0.47676570  0.36446564    -0.13300
C2395       C  0.61868853  0.49405726  0.34499300     0.00400
C2396       C  0.64253934  0.01007414  0.35820409    -0.11800
C2397       C  0.65631124  0.49640510  0.38316014     0.02900
C2398       C  0.63779757  0.47923815  0.40440820    -0.11200
H2399       H  0.57718414  0.46675303  0.35524945     0.08500
H2400       H  0.65574662  0.02654389  0.34422091     0.06000
H2401       H  0.64744541  0.47092696  0.42606608     0.05800
O2402       O  0.50525598  0.14861586  0.20281297    -0.73200
O2403       O  0.99426468  0.14986500  0.29553230    -0.74200
O2404       O  0.54470398  0.15701498  0.25447251    -0.62800
O2405       O  0.95508248  0.15745767  0.24359286    -0.71200
O2406       O  0.95311096  0.10586480  0.24404576    -0.70800
O2407       O  0.54582250  0.10541968  0.25536816    -0.62000
O2408       O  0.99340140  0.09824168  0.29424452    -0.74500
O2409       O  0.50533997  0.09702982  0.20538086    -0.73300
Cu2410     Cu  0.49985058  0.15540130  0.24907467     1.04600
Cu2411     Cu  0.49941569  0.09955352  0.24978313     1.04300
C2412       C  0.50619885  0.12154817  0.18969263     0.93000
C2413       C  0.99279368  0.12315110  0.30932210     0.92100
C2414       C  0.55978756  0.13208855  0.25582792     0.84300
C2415       C  0.93961641  0.13274416  0.24289627     0.90600
C2416       C  0.97036880  0.10915927  0.39377800     0.02900
C2417       C  0.97733475  0.14024811  0.40252514    -0.13300
C2418       C  0.99469190  0.15903904  0.38164138     0.00400
C2419       C  0.00859765  0.14557797  0.35653863    -0.11800
C2420       C  0.99303857  0.12153698  0.34312309     0.02900
C2421       C  0.97562499  0.10095621  0.36218132    -0.11200
H2422       H  0.96874118  0.14966116  0.42424570     0.08500
H2423       H  0.52507651  0.15896574  0.34272853     0.06000
H2424       H  0.96586120  0.07983798  0.35266786     0.05800
C2425       C  0.64469895  0.14632170  0.27742705     0.02900
C2426       C  0.65261704  0.11442605  0.27312923    -0.13300
C2427       C  0.63142970  0.09473936  0.25723511     0.00400
C2428       C  0.60688344  0.10775094  0.24215458    -0.11800
C2429       C  0.59379248  0.13329569  0.25556933     0.02900
C2430       C  0.61324039  0.15475975  0.27141584    -0.11200
H2431       H  0.67397179  0.10517209  0.28257327     0.08500
H2432       H  0.59313602  0.09358107  0.22640479     0.06000
H2433       H  0.60405646  0.17667728  0.27969898     0.05800
C2434       C  0.53014680  0.10631510  0.10625306     0.02900
C2435       C  0.52471805  0.13780709  0.09757774    -0.13300
C2436       C  0.50705823  0.15694267  0.11796068     0.00400
C2437       C  0.49131140  0.14342641  0.14194118    -0.11800
C2438       C  0.50589786  0.11912142  0.15596017     0.02900
C2439       C  0.52345841  0.09812804  0.13755186    -0.11200
H2440       H  0.53452426  0.14716368  0.07636635     0.08500
H2441       H  0.97460832  0.15712174  0.15517871     0.06000
H2442       H  0.53238860  0.07678165  0.14738221     0.05800
C2443       C  0.60595733  0.02843181  0.10611529     0.02900
C2444       C  0.59768504  0.02314863  0.13778506    -0.13300
C2445       C  0.61887918  0.00689053  0.15712592     0.00400
C2446       C  0.64367359  0.99231092  0.14380739    -0.11800
C2447       C  0.65698111  0.00692698  0.11902845     0.02900
C2448       C  0.63763154  0.02318723  0.09784531    -0.11200
H2449       H  0.57613917  0.03221013  0.14715698     0.08500
H2450       H  0.65750684  0.47631433  0.15762688     0.06000
H2451       H  0.64699859  0.03227543  0.07630847     0.05800
C2452       C  0.60608815  0.10629720  0.03028310     0.02900
C2453       C  0.59740915  0.13778446  0.02482884    -0.13300
C2454       C  0.61778961  0.15690741  0.00715614     0.00400
C2455       C  0.64177139  0.14337841  0.99142032    -0.11800
C2456       C  0.65579238  0.11908707  0.00602977     0.02900
C2457       C  0.63738713  0.09810740  0.02360539    -0.11200
H2458       H  0.57619771  0.14714832  0.03462815     0.08500
H2459       H  0.65500908  0.15706249  0.47471027     0.06000
H2460       H  0.64721964  0.07676968  0.03255390     0.05800
C2461       C  0.70852052  0.20997658  0.29158057     0.86200
C2462       C  0.68593099  0.22748848  0.31379621    -0.54000
C2463       C  0.66721137  0.20895347  0.33202357     0.09200
C2464       C  0.67233115  0.17392260  0.32622157     0.20100
C2465       C  0.72593320  0.18732254  0.31360544    -0.54700
C2466       C  0.70734093  0.16868314  0.33182022     0.09300
C2467       C  0.68663409  0.18821910  0.27281082    -0.54300
C2468       C  0.66764513  0.16930537  0.29081534     0.09800
H2469       H  0.68524430  0.25266338  0.31530587     0.14400
H2470       H  0.65721459  0.15883990  0.34077240     0.00100
H2471       H  0.75110470  0.18653979  0.31501266     0.14700
H2472       H  0.68615820  0.18772472  0.24762193     0.14400
C2473       C  0.79146635  0.20998134  0.20864562     0.86200
C2474       C  0.77270683  0.18822442  0.18675194    -0.54000
C2475       C  0.79071654  0.16931092  0.16776510     0.09200
C2476       C  0.82611938  0.17392678  0.17246221     0.20100
C2477       C  0.81348653  0.18732900  0.22606551    -0.54700
C2478       C  0.83170881  0.16868973  0.20747737     0.09300
C2479       C  0.81368354  0.22749313  0.18606180    -0.54300
C2480       C  0.83191766  0.20895790  0.16734571     0.09800
H2481       H  0.74752034  0.18772925  0.18627022     0.14400
H2482       H  0.84067456  0.15884324  0.15734745     0.00100
H2483       H  0.81488528  0.18654757  0.25123959     0.14700
H2484       H  0.81518886  0.25266806  0.18537607     0.14400
C2485       C  0.79427718  0.29558708  0.29440704     0.86200
C2486       C  0.81636035  0.27765980  0.31648418    -0.54000
C2487       C  0.83485941  0.29600548  0.33498384     0.09200
C2488       C  0.82969730  0.33118088  0.32982982     0.20100
C2489       C  0.77623923  0.31772657  0.31653994    -0.54700
C2490       C  0.79449976  0.33632415  0.33504851     0.09300
C2491       C  0.81640166  0.31773069  0.27636730    -0.54300
C2492       C  0.83490923  0.33632814  0.29462982     0.09800
H2493       H  0.81723394  0.25246719  0.31735495     0.14400
H2494       H  0.84455690  0.34609398  0.34469160     0.00100
H2495       H  0.75104521  0.31855307  0.31744670     0.14700
H2496       H  0.81730465  0.31855869  0.25117113     0.14400
C2497       C  0.70894241  0.29259166  0.20907147     0.86200
C2498       C  0.68716093  0.27383110  0.18727758    -0.54000
C2499       C  0.66830673  0.29185084  0.16843001     0.09200
C2500       C  0.67298841  0.32724749  0.17313227     0.20100
C2501       C  0.72651034  0.31470530  0.18648773    -0.54700
C2502       C  0.70802408  0.33293143  0.16790057     0.09300
C2503       C  0.68634972  0.31468942  0.22665203    -0.54300
C2504       C  0.66775475  0.33291576  0.20817423     0.09800
H2505       H  0.68662109  0.24864423  0.18672734     0.14400
H2506       H  0.65794367  0.34179521  0.15809382     0.00100
H2507       H  0.75168829  0.31614308  0.18569535     0.14700
H2508       H  0.68555896  0.31611861  0.25183275     0.14400
C2509       C  0.77262793  0.27379192  0.27275754     0.86200
C2510       C  0.75079623  0.29187667  0.25092582    -0.54000
C2511       C  0.73177276  0.27459507  0.23189723     0.09200
C2512       C  0.73713917  0.23827951  0.23725871     0.20100
C2513       C  0.75066272  0.25188433  0.29086468    -0.54700
C2514       C  0.73159265  0.23284973  0.27358839     0.09300
C2515       C  0.79073748  0.25188733  0.25078970    -0.54300
C2516       C  0.77346736  0.23285282  0.23171546     0.09800
H2517       H  0.75049142  0.31710227  0.25062585     0.14400
H2518       H  0.72230955  0.22346565  0.22242369     0.00100
H2519       H  0.75027787  0.25157369  0.31608953     0.14700
H2520       H  0.81596035  0.25157770  0.25040682     0.14400
C2521       C  0.54243450  0.04260870  0.54259964     0.86200
C2522       C  0.52486484  0.06471943  0.56518893    -0.54000
C2523       C  0.54334990  0.08294370  0.58377682     0.09200
C2524       C  0.57838614  0.07726056  0.57854023     0.20100
C2525       C  0.56502133  0.06470901  0.52502006    -0.54700
C2526       C  0.58361472  0.08293372  0.54349865     0.09300
C2527       C  0.56422111  0.02384584  0.56438753    -0.54300
C2528       C  0.58307417  0.04186287  0.58323553     0.09800
H2529       H  0.49968669  0.06615691  0.56598422     0.14400
H2530       H  0.59343015  0.09180595  0.59357970     0.00100
H2531       H  0.56581061  0.06613974  0.49983942     0.14700
H2532       H  0.56476435  0.99865891  0.56493462     0.14400
C2533       C  0.95709952  0.04560968  0.95727025     0.86200
C2534       C  0.97513642  0.06774450  0.93513691    -0.54000
C2535       C  0.95687544  0.08634280  0.91662791     0.09200
C2536       C  0.92167731  0.08120302  0.92184567     0.20100
C2537       C  0.93497448  0.06775706  0.97530921    -0.54700
C2538       C  0.91646604  0.08635466  0.95704553     0.09300
C2539       C  0.93501809  0.02768222  0.93519542    -0.54300
C2540       C  0.91651674  0.04602657  0.91669546     0.09800
H2541       H  0.00033038  0.06856803  0.93423060     0.14400
H2542       H  0.90681651  0.09611600  0.90698290     0.00100
H2543       H  0.93407083  0.06858661  0.00050530     0.14700
H2544       H  0.93414632  0.00248956  0.93432716     0.14400
C2545       C  0.95991196  0.46000656  0.54303441     0.86200
C2546       C  0.97867465  0.43824543  0.56492300    -0.54000
C2547       C  0.96066747  0.41933449  0.58391059     0.09200
C2548       C  0.92526485  0.42395591  0.57922056     0.20100
C2549       C  0.93788798  0.43735858  0.52561657    -0.54700
C2550       C  0.91966904  0.41872147  0.54420686     0.09300
C2551       C  0.93769759  0.47752103  0.56562424    -0.54300
C2552       C  0.91946739  0.45898668  0.58434240     0.09800
H2553       H  0.50386117  0.43774608  0.56540133     0.14400
H2554       H  0.91071291  0.40887358  0.59433661     0.00100
H2555       H  0.93648577  0.43657719  0.50044262     0.14700
H2556       H  0.93619236  0.00269945  0.56630719     0.14400
C2557       C  0.54285792  0.45999554  0.96008471     0.86200
C2558       C  0.56544337  0.47750729  0.93786689    -0.54000
C2559       C  0.58416426  0.45897195  0.91963612     0.09200
C2560       C  0.57904786  0.42394090  0.92543619     0.20100
C2561       C  0.52544555  0.43734237  0.93805980    -0.54700
C2562       C  0.54403781  0.41870156  0.91984163     0.09300
C2563       C  0.56474931  0.43823650  0.97884971    -0.54300
C2564       C  0.58373830  0.41932269  0.96084141     0.09800
H2565       H  0.56612849  0.00268024  0.93635560     0.14400
H2566       H  0.59416485  0.40885749  0.91088323     0.00100
H2567       H  0.50027394  0.43655966  0.93665700     0.14700
H2568       H  0.56522766  0.43774045  0.50403849     0.14400
C2569       C  0.97874916  0.02381360  0.97891776     0.86200
C2570       C  0.50058052  0.04189635  0.50074785    -0.54000
C2571       C  0.51960596  0.02461297  0.51977434     0.09200
C2572       C  0.51423907  0.48829708  0.51441643     0.20100
C2573       C  0.50071353  0.00190374  0.96080758    -0.54700
C2574       C  0.51978456  0.48286836  0.97808458     0.09300
C2575       C  0.96064121  0.00191241  0.50088607    -0.54300
C2576       C  0.97791050  0.48287433  0.51996299     0.09800
H2577       H  0.50088326  0.06712195  0.50104873     0.14400
H2578       H  0.52907096  0.47348129  0.52924949     0.00100
H2579       H  0.50109645  0.00159396  0.93558270     0.14700
H2580       H  0.93541835  0.00160727  0.50127102     0.14400
C2581       C  0.85775685  0.35914984  0.78114156     0.02900
C2582       C  0.84900444  0.39023848  0.77417629    -0.13300
C2583       C  0.86989248  0.40904262  0.75683986     0.00400
C2584       C  0.89501295  0.39559548  0.74295364    -0.11800
C2585       C  0.90842401  0.37155180  0.75851568     0.02900
C2586       C  0.88935946  0.35095857  0.77590872    -0.11200
H2587       H  0.82727604  0.39964215  0.78275718     0.08500
H2588       H  0.90882812  0.40899114  0.72648510     0.06000
H2589       H  0.89887132  0.32983886  0.78567313     0.05800
C2590       C  0.78100914  0.35914519  0.85789898     0.02900
C2591       C  0.77576656  0.35095209  0.88950077    -0.13300
C2592       C  0.75835972  0.37154163  0.90856094     0.00400
C2593       C  0.74279222  0.39557753  0.89514309    -0.11800
C2594       C  0.75669089  0.40903129  0.87003456     0.02900
C2595       C  0.77404111  0.39023325  0.84914856    -0.11200
H2596       H  0.78553416  0.32983510  0.89901561     0.08500
H2597       H  0.72631426  0.40896932  0.90895349     0.06000
H2598       H  0.78262879  0.39964053  0.82742419     0.05800
C2599       C  0.72122571  0.35630506  0.64542920     0.02900
C2600       C  0.72666723  0.38779104  0.65411582    -0.13300
C2601       C  0.74432920  0.40692432  0.63373623     0.00400
C2602       C  0.76006684  0.39340742  0.60974798    -0.11800
C2603       C  0.74546490  0.36911872  0.59572088     0.02900
C2604       C  0.72790156  0.34812704  0.61412461    -0.11200
H2605       H  0.71686750  0.39714562  0.67533216     0.08500
H2606       H  0.77677225  0.40709814  0.59651227     0.06000
H2607       H  0.71896196  0.32678894  0.60428775     0.05800
C2608       C  0.85541580  0.22205934  0.64483456     0.02900
C2609       C  0.88708721  0.22673948  0.65323939    -0.13300
C2610       C  0.90655801  0.24404580  0.63284104     0.00400
C2611       C  0.89334410  0.26008700  0.60899976    -0.11800
C2612       C  0.86838410  0.24644165  0.59522320     0.02900
C2613       C  0.84714011  0.22926257  0.61372671    -0.11200
H2614       H  0.89630257  0.21670890  0.67432787     0.08500
H2615       H  0.90732762  0.27656256  0.59580026     0.06000
H2616       H  0.82547950  0.22096763  0.60407582     0.05800
O2617       O  0.70557000  0.35542868  0.99629130    -0.73200
O2618       O  0.79827667  0.35588488  0.50765491    -0.74200
O2619       O  0.74603032  0.34703904  0.54629610    -0.62800
O2620       O  0.75801014  0.34825270  0.95744081    -0.71200
O2621       O  0.75711974  0.39987541  0.95615203    -0.70800
O2622       O  0.74611061  0.39862456  0.54887451    -0.62000
O2623       O  0.79629054  0.40747754  0.50810098    -0.74500
O2624       O  0.70667297  0.40702392  0.99720480    -0.73300
Cu2625     Cu  0.75197562  0.34956618  0.50189803     1.04600
Cu2626     Cu  0.75152426  0.40541420  0.50261162     1.04300
C2627       C  0.69159762  0.38209624  0.99583401     0.93000
C2628       C  0.81176364  0.38276609  0.50880198     0.92100
C2629       C  0.74516532  0.37155443  0.56198907     0.84300
C2630       C  0.75860565  0.37316079  0.94236253     0.90600
O2631       O  0.90590983  0.29703129  0.50712015    -0.73200
O2632       O  0.90508684  0.20789950  0.99612935    -0.74200
O2633       O  0.89796894  0.25793439  0.95533328    -0.62800
O2634       O  0.89725766  0.24719877  0.54790405    -0.71200
O2635       O  0.84565449  0.24766544  0.54608300    -0.70800
O2636       O  0.84634549  0.25866915  0.95695320    -0.62000
O2637       O  0.85345723  0.20679599  0.99610178    -0.74500
O2638       O  0.85431394  0.29936039  0.50686288    -0.73300
Cu2639     Cu  0.90368187  0.25249711  0.50164222     1.04600
Cu2640     Cu  0.84781593  0.25314268  0.50151465     1.04300
C2641       C  0.88129430  0.31261373  0.50782831     0.93000
C2642       C  0.88013117  0.19290224  0.99509593     0.92100
C2643       C  0.87123378  0.25922734  0.94170863     0.84300
C2644       C  0.87033739  0.24650693  0.56142378     0.90600
C2645       C  0.89630652  0.39625040  0.53113847     0.02900
C2646       C  0.90444168  0.36489256  0.52476276    -0.13300
C2647       C  0.88347162  0.34637778  0.50745772     0.00400
C2648       C  0.85908898  0.36027986  0.49289362    -0.11800
C2649       C  0.84568060  0.38458404  0.50821382     0.02900
C2650       C  0.86487878  0.40501813  0.52557862    -0.11200
H2651       H  0.92578048  0.35510258  0.53370564     0.08500
H2652       H  0.84538502  0.34694440  0.97639475     0.06000
H2653       H  0.85559936  0.42637793  0.53508041     0.05800
C2654       C  0.85761851  0.28259036  0.85774569     0.02900
C2655       C  0.88896582  0.27647521  0.84917612    -0.13300
C2656       C  0.90777048  0.25902697  0.86980255     0.00400
C2657       C  0.89417939  0.24420897  0.89431594    -0.11800
C2658       C  0.86966429  0.25903016  0.90790294     0.02900
C2659       C  0.84904458  0.27647998  0.88909374    -0.11200
H2660       H  0.89852097  0.28569794  0.82777749     0.08500
H2661       H  0.90770068  0.22770181  0.90784090     0.06000
H2662       H  0.82764688  0.28570755  0.89864645     0.05800
C2663       C  0.64528164  0.35628322  0.72139052     0.02900
C2664       C  0.65396450  0.38776674  0.72684945    -0.13300
C2665       C  0.63358371  0.40689546  0.74451936     0.00400
C2666       C  0.60959578  0.39337510  0.76024871    -0.11800
C2667       C  0.59557418  0.36908933  0.74563476     0.02900
C2668       C  0.61397997  0.34810345  0.72806168    -0.11200
H2669       H  0.67517876  0.39712426  0.71705420     0.08500
H2670       H  0.59635705  0.40706325  0.77695695     0.06000
H2671       H  0.60414617  0.32676892  0.71911045     0.05800
O2672       O  0.95729644  0.34824653  0.75814883    -0.73200
O2673       O  0.54615179  0.34701416  0.74619332    -0.74200
O2674       O  0.50749611  0.35585948  0.79843415    -0.62800
O2675       O  0.99616120  0.35542572  0.70571663    -0.71200
O2676       O  0.99706482  0.40702071  0.70684263    -0.70800
O2677       O  0.50796394  0.40745228  0.79646040    -0.62000
O2678       O  0.54873198  0.39859934  0.74627649    -0.74500
O2679       O  0.95601764  0.39987008  0.75729187    -0.73300
Cu2680     Cu  0.50175365  0.34954990  0.75212624     1.04600
Cu2681     Cu  0.50247387  0.40539818  0.75169412     1.04300
C2682       C  0.94222392  0.37315910  0.75876197     0.93000
C2683       C  0.56184473  0.37152751  0.74533075     0.92100
C2684       C  0.50864887  0.38273880  0.81192843     0.84300
C2685       C  0.99569937  0.38209834  0.69175526     0.90600
O2686       O  0.95681620  0.25864216  0.84648464    -0.73200
O2687       O  0.54593203  0.24761316  0.84578116    -0.74200
O2688       O  0.99595049  0.20675494  0.85360589    -0.62800
O2689       O  0.50672791  0.29932442  0.85445594    -0.71200
O2690       O  0.50699649  0.29699773  0.90605580    -0.70800
O2691       O  0.99597999  0.20788019  0.90523974    -0.62000
O2692       O  0.54776425  0.24715450  0.89738829    -0.74500
O2693       O  0.95519799  0.25792365  0.89811254    -0.73300
Cu2694     Cu  0.50137089  0.25310284  0.84795339     1.04600
Cu2695     Cu  0.50150570  0.25246989  0.90382541     1.04300
C2696       C  0.94157380  0.25921402  0.87137477     0.93000
C2697       C  0.56127695  0.24645858  0.87046214     0.92100
C2698       C  0.99494228  0.19287349  0.88028759     0.84300
C2699       C  0.50770050  0.31257884  0.88144016     0.90600
C2700       C  0.53097622  0.39622539  0.89647662     0.02900
C2701       C  0.52540986  0.40499453  0.86504935    -0.13300
C2702       C  0.50805516  0.38455568  0.84584700     0.00400
C2703       C  0.49274760  0.36024590  0.85925177    -0.11800
C2704       C  0.50732476  0.34634296  0.88362566     0.02900
C2705       C  0.52462048  0.36486155  0.90460309    -0.11200
H2706       H  0.53490146  0.42635803  0.85577279     0.08500
H2707       H  0.97625234  0.34690851  0.84554597     0.06000
H2708       H  0.53357030  0.35507105  0.92593956     0.05800
C2709       C  0.64469613  0.22205322  0.85552278     0.02900
C2710       C  0.61358211  0.22923020  0.84725244    -0.13300
C2711       C  0.59507303  0.24640695  0.86849838     0.00400
C2712       C  0.60884720  0.26007748  0.89344790    -0.11800
C2713       C  0.63269481  0.24405143  0.90666560     0.02900
C2714       C  0.65310133  0.22674991  0.88719468    -0.11200
H2715       H  0.60393225  0.22091858  0.82559591     0.08500
H2716       H  0.59564170  0.27655285  0.90742932     0.06000
H2717       H  0.67419445  0.21673191  0.89641123     0.05800
C2718       C  0.85507297  0.14621995  0.72055121     0.02900
C2719       C  0.88649893  0.15498763  0.72611101    -0.13300
C2720       C  0.90569931  0.13455828  0.74348198     0.00400
C2721       C  0.89229603  0.11025550  0.75880459    -0.11800
C2722       C  0.86791074  0.09635404  0.74424792     0.02900
C2723       C  0.84693923  0.11486611  0.72693854    -0.11200
H2724       H  0.89577570  0.17634462  0.71660496     0.08500
H2725       H  0.90600306  0.09692163  0.77530362     0.06000
H2726       H  0.82560003  0.10507609  0.71799996     0.05800
O2727       O  0.89706602  0.04932991  0.74484631    -0.73200
O2728       O  0.89790987  0.45676406  0.75559731    -0.74200
O2729       O  0.90571960  0.49763739  0.70562218    -0.62800
O2730       O  0.90503468  0.00862943  0.79474659    -0.71200
O2731       O  0.85341131  0.00790427  0.79637450    -0.70400
O2732       O  0.85411634  0.49718953  0.70380389    -0.62000
O2733       O  0.84628031  0.45788358  0.75557201    -0.74500
O2734       O  0.84546978  0.04701402  0.74459866    -0.73300
Cu2735     Cu  0.90355962  0.00310938  0.75018621     1.04600
Cu2736     Cu  0.84769309  0.00247936  0.75006436     1.04300
C2737       C  0.87008647  0.06258987  0.74388498     0.93000
C2738       C  0.87123379  0.44287849  0.75660016     0.92100
C2739       C  0.88103604  0.49649402  0.69028220     0.84300
C2740       C  0.88014881  0.00919301  0.80999459     0.90600
O2741       O  0.75541473  0.45787097  0.84643430    -0.73200
O2742       O  0.74439333  0.04698820  0.84561953    -0.74200
O2743       O  0.79619432  0.00791328  0.85357105    -0.62800
O2744       O  0.70362703  0.49715023  0.85427871    -0.71200
O2745       O  0.70544899  0.49760865  0.90588608    -0.70800
O2746       O  0.79456337  0.00863401  0.90519858    -0.62000
O2747       O  0.74465034  0.04931742  0.89721970    -0.74500
O2748       O  0.75543514  0.45674858  0.89806824    -0.73300
Cu2749     Cu  0.74988652  0.00246185  0.84784766     1.04600
Cu2750     Cu  0.75000936  0.00309624  0.90371991     1.04300
C2751       C  0.75644546  0.44286549  0.87138687     0.93000
C2752       C  0.74368341  0.06256999  0.87023501     0.92100
C2753       C  0.80981173  0.00920765  0.88031225     0.84300
C2754       C  0.69010867  0.49645469  0.88120228     0.90600
C2755       C  0.89375817  0.03260487  0.89393863     0.02900
C2756       C  0.90233734  0.02647068  0.86259686    -0.13300
C2757       C  0.88172517  0.00900311  0.84379910     0.00400
C2758       C  0.85721483  0.99418646  0.85739421    -0.11800
C2759       C  0.84361499  0.00902339  0.88189344     0.02900
C2760       C  0.86241139  0.02649180  0.90250920    -0.11200
H2761       H  0.92373262  0.03569483  0.85303923     0.08500
H2762       H  0.84370176  0.47767135  0.84387902     0.06000
H2763       H  0.85285084  0.03572914  0.92389998     0.05800
C2764       C  0.72040252  0.14621239  0.85518938     0.02900
C2765       C  0.72596609  0.15498749  0.88661537    -0.13300
C2766       C  0.74332166  0.13455125  0.90582159     0.00400
C2767       C  0.75863295  0.11023804  0.89242056    -0.11800
C2768       C  0.74405824  0.09633256  0.86804756     0.02900
C2769       C  0.72676206  0.11484787  0.84706706    -0.11200
H2770       H  0.71647121  0.17635310  0.89588830     0.08500
H2771       H  0.77512779  0.09690057  0.90612898     0.06000
H2772       H  0.71781428  0.10505439  0.82573145     0.05800
O2773       O  0.60400392  0.24489654  0.95424877    -0.73200
O2774       O  0.60401887  0.25690592  0.54703599    -0.74200
O2775       O  0.59644030  0.29569563  0.99457502    -0.62800
O2776       O  0.59537346  0.20641636  0.50682953    -0.71200
O2777       O  0.64694770  0.20405149  0.50657683    -0.70800
O2778       O  0.64804138  0.29685638  0.99461260    -0.62000
O2779       O  0.65561112  0.25639332  0.54520517    -0.74500
O2780       O  0.65558852  0.24419103  0.95589476    -0.73300
Cu2781     Cu  0.59784031  0.25101194  0.50067078     1.04600
Cu2782     Cu  0.65367126  0.25035530  0.50055758     1.04300
C2783       C  0.63085526  0.24346953  0.94058989     0.93000
C2784       C  0.63083317  0.25757385  0.56060776     0.92100
C2785       C  0.62136306  0.31078634  0.99365408     0.84300
C2786       C  0.61994553  0.19077867  0.50774848     0.90600
C2787       C  0.60668582  0.39633500  0.97422505     0.02900
C2788       C  0.63814371  0.40476878  0.98023810    -0.13300
C2789       C  0.65759287  0.38330005  0.99608036     0.00400
C2790       C  0.64450458  0.35775341  0.00948799    -0.11800
C2791       C  0.61995623  0.34474850  0.99440873     0.02900
C2792       C  0.59876815  0.36444040  0.97851879    -0.11200
H2793       H  0.64732576  0.42668756  0.97196120     0.08500
H2794       H  0.65825216  0.34358035  0.52523635     0.06000
H2795       H  0.57741216  0.35519134  0.96907602     0.05800
O2796       O  0.50673513  0.20644318  0.59553397    -0.73200
O2797       O  0.99442735  0.29571325  0.59659464    -0.74200
O2798       O  0.54690355  0.25695226  0.60416870    -0.62800
O2799       O  0.95413848  0.24489472  0.60415638    -0.71200
O2800       O  0.95577996  0.24420629  0.65574602    -0.70800
O2801       O  0.54507960  0.25644711  0.65576623    -0.62000
O2802       O  0.99446955  0.29688515  0.64820049    -0.74500
O2803       O  0.50648108  0.20409119  0.64711337    -0.73300
Cu2804     Cu  0.50054972  0.25103448  0.59799573     1.04600
Cu2805     Cu  0.50043792  0.25039053  0.65383143     1.04300
C2806       C  0.50765642  0.19081260  0.62011083     0.93000
C2807       C  0.99350385  0.31080806  0.62151849     0.92100
C2808       C  0.56047660  0.25762445  0.63098311     0.84300
C2809       C  0.94047938  0.24346897  0.63100849     0.90600
C2810       C  0.97405374  0.39634765  0.60685464     0.02900
C2811       C  0.97834745  0.36445436  0.59893090    -0.13300
C2812       C  0.99425626  0.34476765  0.62010800     0.00400
C2813       C  0.00935363  0.35777677  0.64464507    -0.11800
C2814       C  0.99594313  0.38331617  0.65774886     0.02900
C2815       C  0.98008304  0.40478276  0.63831204    -0.11200
H2816       H  0.96889264  0.35520299  0.57757933     0.08500
H2817       H  0.52511287  0.34360586  0.65838239     0.06000
H2818       H  0.97180483  0.42669915  0.64750314     0.05800
C2819       C  0.64542252  0.27842604  0.64554846     0.02900
C2820       C  0.65369049  0.27315141  0.61387513    -0.13300
C2821       C  0.63249095  0.25690895  0.59452892     0.00400
C2822       C  0.60769347  0.24233586  0.60784345    -0.11800
C2823       C  0.59439291  0.25694343  0.63263291     0.02900
C2824       C  0.61374855  0.27318815  0.65382017    -0.11200
H2825       H  0.67523769  0.28220750  0.60450500     0.08500
H2826       H  0.59385949  0.22634723  0.59402124     0.06000
H2827       H  0.60438602  0.28227008  0.67536270     0.05800
O2828       O  0.79407900  0.09825221  0.99351583    -0.73200
O2829       O  0.70521937  0.09700726  0.50547100    -0.74200
O2830       O  0.74387717  0.10585675  0.95323311    -0.62800
O2831       O  0.75521442  0.10541419  0.54594884    -0.71200
O2832       O  0.75429573  0.15700913  0.54483226    -0.70800
O2833       O  0.74339466  0.15744945  0.95521020    -0.62000
O2834       O  0.70263017  0.14859250  0.50539540    -0.74500
O2835       O  0.79533800  0.14987622  0.99437914    -0.73300
Cu2836     Cu  0.74962007  0.09954598  0.49953894     1.04600
Cu2837     Cu  0.74888415  0.15539339  0.49997848     1.04300
C2838       C  0.80914158  0.12316880  0.99290593     0.93000
C2839       C  0.68952190  0.12152107  0.50633612     0.92100
C2840       C  0.74272031  0.13273597  0.93974020     0.84300
C2841       C  0.75567387  0.13208456  0.55991511     0.90600
C2842       C  0.89361410  0.10917555  0.97053304     0.02900
C2843       C  0.90236161  0.14026221  0.97750754    -0.13300
C2844       C  0.88146730  0.15906576  0.99484159     0.00400
C2845       C  0.85634139  0.14561998  0.00871469    -0.11800
C2846       C  0.84294127  0.12157202  0.99315164     0.02900
C2847       C  0.86201328  0.10098227  0.97575974    -0.11200
H2848       H  0.92409231  0.14966486  0.96893591     0.08500
H2849       H  0.84251963  0.15901420  0.52518116     0.06000
H2850       H  0.85250838  0.07986187  0.96599293     0.05800
O2851       O  0.75692802  0.04569858  0.65509105    -0.73200
O2852       O  0.74464252  0.45642735  0.65616273    -0.74200
O2853       O  0.79723078  0.49488494  0.64754671    -0.62800
O2854       O  0.70446135  0.00693134  0.64750906    -0.71200
O2855       O  0.70630115  0.00642717  0.59591199    -0.70800
O2856       O  0.79559842  0.49417973  0.59595683    -0.62000
O2857       O  0.74490234  0.45407087  0.60458347    -0.74500
O2858       O  0.75690779  0.04686007  0.60348488    -0.73300
Cu2859     Cu  0.75081647  0.00101844  0.65369428     1.04600
Cu2860     Cu  0.75094169  0.00036633  0.59785838     1.04300
C2861       C  0.75786564  0.06078807  0.63016485     0.93000
C2862       C  0.74372749  0.44079443  0.63158645     0.92100
C2863       C  0.81089468  0.49345572  0.62069692     0.84300
C2864       C  0.69089658  0.00760545  0.62069029     0.90600
C2865       C  0.89596903  0.47208451  0.60685853     0.02900
C2866       C  0.90424236  0.47927812  0.63796970    -0.13300
C2867       C  0.88298874  0.49644113  0.65648230     0.00400
C2868       C  0.85802057  0.01008619  0.64270734    -0.11800
C2869       C  0.84481505  0.49404321  0.61886700     0.02900
C2870       C  0.86429414  0.47675354  0.59845942    -0.11200
H2871       H  0.92590712  0.47098589  0.64761629     0.08500
H2872       H  0.84402876  0.02655308  0.65591241     0.06000
H2873       H  0.85508229  0.46672553  0.57736856     0.05800
C2874       C  0.77733132  0.14632482  0.64481891     0.02900
C2875       C  0.77303110  0.11443375  0.65274486    -0.13300
C2876       C  0.75712243  0.09474850  0.63156787     0.00400
C2877       C  0.74203374  0.10775679  0.60702413    -0.11800
C2878       C  0.75544169  0.13329598  0.59392254     0.02900
C2879       C  0.77130259  0.15475949  0.61336070    -0.11200
H2880       H  0.78248029  0.10518258  0.67409947     0.08500
H2881       H  0.72627539  0.09358791  0.59328592     0.06000
H2882       H  0.77957976  0.17667486  0.60417036     0.05800
O2883       O  0.65494047  0.04568007  0.75707104    -0.73200
O2884       O  0.65600359  0.45639799  0.74483575    -0.74200
O2885       O  0.64735662  0.00688338  0.70461521    -0.62800
O2886       O  0.64737709  0.49489023  0.79740826    -0.71200
O2887       O  0.59579233  0.49419724  0.79576546    -0.70800
O2888       O  0.59576440  0.00638208  0.70645098    -0.62000
O2889       O  0.60442907  0.45404571  0.74509226    -0.74500
O2890       O  0.60333952  0.04685394  0.75703574    -0.73300
Cu2891     Cu  0.65353869  0.00099600  0.75098074     1.04600
Cu2892     Cu  0.59770750  0.00035217  0.75109825     1.04300
C2893       C  0.63001907  0.06077733  0.75799168     0.93000
C2894       C  0.63143032  0.44076633  0.74392235     0.92100
C2895       C  0.62054096  0.00755557  0.69104623     0.84300
C2896       C  0.62052639  0.49347175  0.81106883     0.90600
C2897       C  0.60668168  0.47206990  0.89613831     0.02900
C2898       C  0.59827848  0.47676570  0.86446565    -0.13300
C2899       C  0.61868855  0.49405731  0.84499304     0.00400
C2900       C  0.64253939  0.01007414  0.85820405    -0.11800
C2901       C  0.65631124  0.49640512  0.88316022     0.02900
C2902       C  0.63779758  0.47923812  0.90440824    -0.11200
H2903       H  0.57718420  0.46675300  0.85524944     0.08500
H2904       H  0.65574664  0.02654385  0.84422088     0.06000
H2905       H  0.64744543  0.47092688  0.92606611     0.05800
O2906       O  0.50525601  0.14861591  0.70281294    -0.73200
O2907       O  0.99426467  0.14986503  0.79553233    -0.74200
O2908       O  0.54470399  0.15701497  0.75447262    -0.62800
O2909       O  0.95508249  0.15745765  0.74359282    -0.71200
O2910       O  0.95311096  0.10586480  0.74404574    -0.70800
O2911       O  0.54582251  0.10541968  0.75536812    -0.62000
O2912       O  0.99340142  0.09824174  0.79424456    -0.74500
O2913       O  0.50533997  0.09702989  0.70538085    -0.73300
Cu2914     Cu  0.49985059  0.15540130  0.74907468     1.04600
Cu2915     Cu  0.49941570  0.09955362  0.74978313     1.04300
C2916       C  0.50619886  0.12154822  0.68969260     0.93000
C2917       C  0.99279368  0.12315114  0.80932215     0.92100
C2918       C  0.55978757  0.13208854  0.75582794     0.84300
C2919       C  0.93961641  0.13274415  0.74289627     0.90600
C2920       C  0.97036881  0.10915932  0.89377806     0.02900
C2921       C  0.97733474  0.14024820  0.90252515    -0.13300
C2922       C  0.99469190  0.15903908  0.88164136     0.00400
C2923       C  0.00859769  0.14557800  0.85653864    -0.11800
C2924       C  0.99303858  0.12153701  0.84312314     0.02900
C2925       C  0.97562499  0.10095625  0.86218138    -0.11200
H2926       H  0.96874120  0.14966132  0.92424567     0.08500
H2927       H  0.52507653  0.15896570  0.84272854     0.06000
H2928       H  0.96586122  0.07983802  0.85266796     0.05800
C2929       C  0.64469895  0.14632166  0.77742712     0.02900
C2930       C  0.65261704  0.11442600  0.77312931    -0.13300
C2931       C  0.63142971  0.09473935  0.75723512     0.00400
C2932       C  0.60688346  0.10775093  0.74215457    -0.11800
C2933       C  0.59379250  0.13329568  0.75556934     0.02900
C2934       C  0.61324040  0.15475968  0.77141593    -0.11200
H2935       H  0.67397173  0.10517205  0.78257337     0.08500
H2936       H  0.59313608  0.09358110  0.72640478     0.06000
H2937       H  0.60405642  0.17667723  0.77969915     0.05800
C2938       C  0.53014682  0.10631512  0.60625307     0.02900
C2939       C  0.52471805  0.13780712  0.59757773    -0.13300
C2940       C  0.50705826  0.15694270  0.61796068     0.00400
C2941       C  0.49131142  0.14342646  0.64194119    -0.11800
C2942       C  0.50589785  0.11912144  0.65596016     0.02900
C2943       C  0.52345839  0.09812806  0.63755185    -0.11200
H2944       H  0.53452423  0.14716367  0.57636634     0.08500
H2945       H  0.97460833  0.15712172  0.65517865     0.06000
H2946       H  0.53238858  0.07678166  0.64738220     0.05800
C2947       C  0.60595734  0.02843178  0.60611526     0.02900
C2948       C  0.59768504  0.02314861  0.63778503    -0.13300
C2949       C  0.61887916  0.00689050  0.65712590     0.00400
C2950       C  0.64367359  0.99231090  0.64380739    -0.11800
C2951       C  0.65698112  0.00692697  0.61902847     0.02900
C2952       C  0.63763156  0.02318720  0.59784530    -0.11200
H2953       H  0.57613916  0.03221011  0.64715694     0.08500
H2954       H  0.65750685  0.47631430  0.65762686     0.06000
H2955       H  0.64699862  0.03227537  0.57630847     0.05800
C2956       C  0.60608816  0.10629719  0.53028310     0.02900
C2957       C  0.59740915  0.13778443  0.52482881    -0.13300
C2958       C  0.61778962  0.15690741  0.50715613     0.00400
C2959       C  0.64177140  0.14337839  0.49142034    -0.11800
C2960       C  0.65579239  0.11908705  0.50602978     0.02900
C2961       C  0.63738716  0.09810740  0.52360546    -0.11200
H2962       H  0.57619769  0.14714828  0.53462809     0.08500
H2963       H  0.65500902  0.15706247  0.97471026     0.06000
H2964       H  0.64721966  0.07676973  0.53255401     0.05800
C2965       C  0.70852050  0.20997659  0.79158057     0.86200
C2966       C  0.68593097  0.22748850  0.81379617    -0.54000
C2967       C  0.66721136  0.20895351  0.83202356     0.09200
C2968       C  0.67233117  0.17392262  0.82622160     0.20100
C2969       C  0.72593320  0.18732263  0.81360549    -0.54700
C2970       C  0.70734094  0.16868319  0.83182024     0.09300
C2971       C  0.68663410  0.18821905  0.77281081    -0.54300
C2972       C  0.66764515  0.16930533  0.79081539     0.09800
H2973       H  0.68524429  0.25266339  0.81530580     0.14400
H2974       H  0.65721460  0.15883989  0.84077245     0.00100
H2975       H  0.75110470  0.18653997  0.81501279     0.14700
H2976       H  0.68615819  0.18772465  0.74762202     0.14400
C2977       C  0.79146636  0.20998133  0.70864562     0.86200
C2978       C  0.77270684  0.18822441  0.68675195    -0.54000
C2979       C  0.79071654  0.16931090  0.66776514     0.09200
C2980       C  0.82611939  0.17392676  0.67246220     0.20100
C2981       C  0.81348655  0.18732899  0.72606546    -0.54700
C2982       C  0.83170885  0.16868974  0.70747736     0.09300
C2983       C  0.81368356  0.22749311  0.68606178    -0.54300
C2984       C  0.83191766  0.20895788  0.66734569     0.09800
H2985       H  0.74752034  0.18772928  0.68627022     0.14400
H2986       H  0.84067455  0.15884321  0.65734744     0.00100
H2987       H  0.81488530  0.18654754  0.75123962     0.14700
H2988       H  0.81518891  0.25266804  0.68537605     0.14400
C2989       C  0.79427719  0.29558707  0.79440703     0.86200
C2990       C  0.81636039  0.27765980  0.81648417    -0.54000
C2991       C  0.83485944  0.29600550  0.83498382     0.09200
C2992       C  0.82969731  0.33118088  0.82982980     0.20100
C2993       C  0.77623924  0.31772654  0.81653994    -0.54700
C2994       C  0.79449977  0.33632414  0.83504850     0.09300
C2995       C  0.81640165  0.31773074  0.77636726    -0.54300
C2996       C  0.83490923  0.33632817  0.79462982     0.09800
H2997       H  0.81723399  0.25246719  0.81735496     0.14400
H2998       H  0.84455691  0.34609398  0.84469158     0.00100
H2999       H  0.75104522  0.31855305  0.81744670     0.14700
H3000       H  0.81730460  0.31855879  0.75117118     0.14400
C3001       C  0.70894241  0.29259162  0.70907147     0.86200
C3002       C  0.68716094  0.27383108  0.68727756    -0.54000
C3003       C  0.66830674  0.29185082  0.66842998     0.09200
C3004       C  0.67298842  0.32724746  0.67313227     0.20100
C3005       C  0.72651035  0.31470527  0.68648773    -0.54700
C3006       C  0.70802410  0.33293139  0.66790058     0.09300
C3007       C  0.68634973  0.31468939  0.72665199    -0.54300
C3008       C  0.66775476  0.33291573  0.70817424     0.09800
H3009       H  0.68662110  0.24864420  0.68672732     0.14400
H3010       H  0.65794368  0.34179520  0.65809381     0.00100
H3011       H  0.75168830  0.31614309  0.68569537     0.14700
H3012       H  0.68555898  0.31611858  0.75183278     0.14400
C3013       C  0.77262793  0.27379190  0.77275753     0.86200
C3014       C  0.75079624  0.29187665  0.75092582    -0.54000
C3015       C  0.73177275  0.27459506  0.73189723     0.09200
C3016       C  0.73713916  0.23827950  0.73725870     0.20100
C3017       C  0.75066271  0.25188431  0.79086467    -0.54700
C3018       C  0.73159262  0.23284972  0.77358837     0.09300
C3019       C  0.79073748  0.25188730  0.75078968    -0.54300
C3020       C  0.77346735  0.23285280  0.73171545     0.09800
H3021       H  0.75049147  0.31710225  0.75062585     0.14400
H3022       H  0.72230953  0.22346563  0.72242365     0.00100
H3023       H  0.75027786  0.25157363  0.81608950     0.14700
H3024       H  0.81596035  0.25157767  0.75040679     0.14400
C3025       C  0.54243070  0.54260864  0.04260645     0.86200
C3026       C  0.52486120  0.56471912  0.06519640    -0.54000
C3027       C  0.54334648  0.58294373  0.08378398     0.09200
C3028       C  0.57838272  0.57726092  0.07854637     0.20100
C3029       C  0.56501670  0.56470940  0.02502655    -0.54700
C3030       C  0.58361015  0.58293438  0.04350466     0.09300
C3031       C  0.56421817  0.52384600  0.06439370    -0.54300
C3032       C  0.58307158  0.54186317  0.08324132     0.09800
H3033       H  0.49968306  0.56615646  0.06599198     0.14400
H3034       H  0.59342703  0.59180648  0.09358535     0.00100
H3035       H  0.56580551  0.56614007  0.99984586     0.14700
H3036       H  0.56476192  0.49865908  0.06494038     0.14400
C3037       C  0.95709585  0.54561034  0.45727716     0.86200
C3038       C  0.97513285  0.56774575  0.43514467    -0.54000
C3039       C  0.95687209  0.58634406  0.41663565     0.09200
C3040       C  0.92167401  0.58120406  0.42185258     0.20100
C3041       C  0.93497000  0.56775716  0.47531621    -0.54700
C3042       C  0.91646165  0.58635496  0.45705241     0.09300
C3043       C  0.93501512  0.52768312  0.43520151    -0.54300
C3044       C  0.91651418  0.54602780  0.41670149     0.09800
H3045       H  0.00032688  0.56856927  0.43423851     0.14400
H3046       H  0.90681348  0.59611710  0.40698961     0.00100
H3047       H  0.93406588  0.56858629  0.50051227     0.14700
H3048       H  0.93414373  0.50249056  0.43433254     0.14400
C3049       C  0.95991367  0.96000927  0.04303117     0.86200
C3050       C  0.97867599  0.93824883  0.06492082    -0.54000
C3051       C  0.96066859  0.91933832  0.08390868     0.09200
C3052       C  0.92526600  0.92395956  0.07921778     0.20100
C3053       C  0.93789010  0.93736078  0.02561364    -0.54700
C3054       C  0.91967091  0.91872414  0.04420407     0.09300
C3055       C  0.93769883  0.97752442  0.06562012    -0.54300
C3056       C  0.91946829  0.95899051  0.08433854     0.09800
H3057       H  0.50386255  0.93774940  0.06539948     0.14400
H3058       H  0.91071378  0.90887756  0.09433391     0.00100
H3059       H  0.93648834  0.93657864  0.00043970     0.14700
H3060       H  0.93619112  0.50269612  0.06631215     0.14400
C3061       C  0.54285961  0.95999385  0.46008137     0.86200
C3062       C  0.56544449  0.97750537  0.43786298    -0.54000
C3063       C  0.58416526  0.95896991  0.41963242     0.09200
C3064       C  0.57904963  0.92393894  0.42543346     0.20100
C3065       C  0.52544728  0.93733992  0.43805730    -0.54700
C3066       C  0.54403961  0.91869895  0.41983944     0.09300
C3067       C  0.56475144  0.93823564  0.47884685    -0.54300
C3068       C  0.58374056  0.91932168  0.46083877     0.09800
H3069       H  0.56612775  0.50268222  0.43636009     0.14400
H3070       H  0.59416671  0.90885545  0.41088070     0.00100
H3071       H  0.50027566  0.93655710  0.43665448     0.14700
H3072       H  0.56522994  0.93774010  0.00403553     0.14400
C3073       C  0.97874596  0.52381383  0.47892382     0.86200
C3074       C  0.50057657  0.54189627  0.00075487    -0.54000
C3075       C  0.51960245  0.52461273  0.01978075     0.09200
C3076       C  0.51424132  0.98829738  0.01441184     0.20100
C3077       C  0.50071134  0.50190543  0.46081271    -0.54700
C3078       C  0.51978634  0.98286708  0.47808029     0.09300
C3079       C  0.96063859  0.50191110  0.00089094    -0.54300
C3080       C  0.97791263  0.98287601  0.01995895     0.09800
H3081       H  0.50087853  0.56712187  0.00105681     0.14400
H3082       H  0.52907289  0.97348178  0.02924534     0.00100
H3083       H  0.50109434  0.50159672  0.43558781     0.14700
H3084       H  0.93541573  0.50160532  0.00127589     0.14400
C3085       C  0.85775979  0.85914912  0.28113714     0.02900
C3086       C  0.84900673  0.89023697  0.27416915    -0.13300
C3087       C  0.86989488  0.90904083  0.25683250     0.00400
C3088       C  0.89501689  0.89559395  0.24294882    -0.11800
C3089       C  0.90842795  0.87155164  0.25851309     0.02900
C3090       C  0.88936311  0.85095871  0.27590643    -0.11200
H3091       H  0.82727762  0.89964045  0.28274852     0.08500
H3092       H  0.90883246  0.90898915  0.22648038     0.06000
H3093       H  0.89887517  0.82983989  0.28567251     0.05800
C3094       C  0.78101057  0.85914748  0.35789449     0.02900
C3095       C  0.77576929  0.85095434  0.38949638    -0.13300
C3096       C  0.75836162  0.87154290  0.40855669     0.00400
C3097       C  0.74279222  0.89557776  0.39513911    -0.11800
C3098       C  0.75668953  0.90903212  0.37003010     0.02900
C3099       C  0.77404018  0.89023488  0.34914376    -0.11200
H3100       H  0.78553838  0.82983804  0.39901113     0.08500
H3101       H  0.72631411  0.90896879  0.40894999     0.06000
H3102       H  0.78262677  0.89964240  0.32741909     0.05800
C3103       C  0.72122935  0.85630261  0.14542497     0.02900
C3104       C  0.72666995  0.88778870  0.15411171    -0.13300
C3105       C  0.74433146  0.90692263  0.13373240     0.00400
C3106       C  0.76006971  0.89340647  0.10974415    -0.11800
C3107       C  0.74546880  0.86911731  0.09571677     0.02900
C3108       C  0.72790590  0.84812493  0.11412033    -0.11200
H3109       H  0.71686974  0.89714294  0.17532800     0.08500
H3110       H  0.77677473  0.90709793  0.09650862     0.06000
H3111       H  0.71896691  0.82678664  0.10428320     0.05800
C3112       C  0.85541616  0.72206158  0.14483404     0.02900
C3113       C  0.88708699  0.72674368  0.15323969    -0.13300
C3114       C  0.90655752  0.74405011  0.13284128     0.00400
C3115       C  0.89334374  0.76008971  0.10899885    -0.11800
C3116       C  0.86838431  0.74644325  0.09522235     0.02900
C3117       C  0.84714081  0.72926351  0.11372581    -0.11200
H3118       H  0.89630225  0.71671412  0.17432872     0.08500
H3119       H  0.90732701  0.77656522  0.09579905     0.06000
H3120       H  0.82548078  0.72096742  0.10407476     0.05800
O3121       O  0.70557375  0.85542803  0.49628721    -0.73200
O3122       O  0.79828085  0.85588637  0.00764916    -0.74200
O3123       O  0.74603524  0.84703840  0.04629148    -0.62800
O3124       O  0.75801357  0.84825371  0.45743613    -0.71200
O3125       O  0.75712224  0.89987645  0.45614781    -0.70800
O3126       O  0.74611381  0.89862386  0.04887058    -0.62000
O3127       O  0.79629326  0.90747893  0.00809658    -0.74500
O3128       O  0.70667568  0.90702327  0.49720081    -0.73300
Cu3129     Cu  0.75197969  0.84956650  0.00189325     1.04600
Cu3130     Cu  0.75152703  0.90541440  0.00260754     1.04300
C3131       C  0.69160082  0.88209532  0.49582982     0.93000
C3132       C  0.81176710  0.88276795  0.00879656     0.92100
C3133       C  0.74516939  0.87155352  0.06198484     0.84300
C3134       C  0.75860839  0.87316197  0.44235813     0.90600
O3135       O  0.90591010  0.79703268  0.00711881    -0.73200
O3136       O  0.90508304  0.70790104  0.49612842    -0.74200
O3137       O  0.89796638  0.75793570  0.45533234    -0.62800
O3138       O  0.89725713  0.74720024  0.04790289    -0.71200
O3139       O  0.84565391  0.74767000  0.04608274    -0.70800
O3140       O  0.84634295  0.75867208  0.45695260    -0.62000
O3141       O  0.85345338  0.70679981  0.49610241    -0.74500
O3142       O  0.85431432  0.79936429  0.00686133    -0.73300
Cu3143     Cu  0.90368019  0.75249852  0.00164105     1.04600
Cu3144     Cu  0.84781426  0.75314662  0.00151428     1.04300
C3145       C  0.88129532  0.81261634  0.00782654     0.93000
C3146       C  0.88012668  0.69290487  0.49509635     0.92100
C3147       C  0.87123117  0.75922894  0.44170782     0.84300
C3148       C  0.87033705  0.74650937  0.06142300     0.90600
C3149       C  0.89630868  0.89625290  0.03113556     0.02900
C3150       C  0.90444366  0.86489479  0.02476087    -0.13300
C3151       C  0.88347430  0.84638030  0.00745466     0.00400
C3152       C  0.85909323  0.86028296  0.99288837    -0.11800
C3153       C  0.84568403  0.88458698  0.00820814     0.02900
C3154       C  0.86488139  0.90502097  0.02557396    -0.11200
H3155       H  0.92578159  0.85510449  0.03370529     0.08500
H3156       H  0.84538996  0.84694751  0.47638895     0.06000
H3157       H  0.85560164  0.92638071  0.03507533     0.05800
C3158       C  0.85761794  0.78259170  0.35774481     0.02900
C3159       C  0.88896558  0.77647672  0.34917636    -0.13300
C3160       C  0.90776945  0.75902809  0.36980321     0.00400
C3161       C  0.89417741  0.74420978  0.39431582    -0.11800
C3162       C  0.86966178  0.75903074  0.40790213     0.02900
C3163       C  0.84904263  0.77648068  0.38909238    -0.11200
H3164       H  0.89852151  0.78569955  0.32777817     0.08500
H3165       H  0.90769836  0.72770243  0.40784110     0.06000
H3166       H  0.82764465  0.78570806  0.39864435     0.05800
C3167       C  0.64528444  0.85628436  0.22138574     0.02900
C3168       C  0.65396599  0.88776883  0.22684134    -0.13300
C3169       C  0.63358573  0.90689757  0.24451183     0.00400
C3170       C  0.60960033  0.89337680  0.26024476    -0.11800
C3171       C  0.59557850  0.86908970  0.24563335     0.02900
C3172       C  0.61398383  0.84810346  0.22806031    -0.11200
H3173       H  0.67517900  0.89712679  0.21704370     0.08500
H3174       H  0.59636245  0.90706524  0.27695336     0.06000
H3175       H  0.60415024  0.82676782  0.21911127     0.05800
O3176       O  0.95730068  0.84824686  0.25814574    -0.73200
O3177       O  0.54615612  0.84701457  0.24619031    -0.74200
O3178       O  0.50750046  0.85585898  0.29843068    -0.62800
O3179       O  0.99616579  0.85542747  0.20571300    -0.71200
O3180       O  0.99706989  0.90702240  0.20684042    -0.70800
O3181       O  0.50796710  0.90745189  0.29645825    -0.62000
O3182       O  0.54873617  0.89859975  0.24627558    -0.74500
O3183       O  0.95602150  0.89987040  0.25728915    -0.73300
Cu3184     Cu  0.50175806  0.84955034  0.25212282     1.04600
Cu3185     Cu  0.50247788  0.90539875  0.25169210     1.04300
C3186       C  0.94222796  0.87315930  0.25875942     0.93000
C3187       C  0.56184904  0.87152796  0.24532938     0.92100
C3188       C  0.50865256  0.88273802  0.31192557     0.84300
C3189       C  0.99570417  0.88210049  0.19175229     0.90600
O3190       O  0.95681508  0.75863934  0.34648558    -0.73200
O3191       O  0.54593064  0.74760912  0.34578103    -0.74200
O3192       O  0.99594901  0.70675180  0.35360963    -0.62800
O3193       O  0.50672722  0.79932133  0.35445407    -0.71200
O3194       O  0.50699695  0.79699687  0.40605403    -0.70800
O3195       O  0.99597781  0.70788041  0.40524343    -0.62000
O3196       O  0.54776322  0.74715249  0.39738815    -0.74500
O3197       O  0.95519691  0.75792467  0.39811355    -0.73300
Cu3198     Cu  0.50136952  0.75309941  0.34795395     1.04600
Cu3199     Cu  0.50150472  0.75246955  0.40382612     1.04300
C3200       C  0.94157276  0.75921388  0.37137567     0.93000
C3201       C  0.56127579  0.74645541  0.37046190     0.92100
C3202       C  0.99494064  0.69287215  0.38029228     0.84300
C3203       C  0.50770083  0.81257684  0.38143774     0.90600
C3204       C  0.53097809  0.89622312  0.39647421     0.02900
C3205       C  0.52541247  0.90499262  0.36504701    -0.13300
C3206       C  0.50805833  0.88455408  0.34584399     0.00400
C3207       C  0.49275053  0.86024396  0.35924779    -0.11800
C3208       C  0.50732657  0.84634096  0.38362222     0.02900
C3209       C  0.52462166  0.86485936  0.40460036    -0.11200
H3210       H  0.53490430  0.92635633  0.35577088     0.08500
H3211       H  0.97625553  0.84690695  0.34554142     0.06000
H3212       H  0.53357055  0.85506875  0.42593724     0.05800
C3213       C  0.64469610  0.72205175  0.35552257     0.02900
C3214       C  0.61358171  0.72922759  0.34725217    -0.13300
C3215       C  0.59507201  0.74640397  0.36849800     0.00400
C3216       C  0.60884599  0.76007514  0.39344723    -0.11800
C3217       C  0.63269352  0.74404949  0.40666535     0.02900
C3218       C  0.65310077  0.72674851  0.38719464    -0.11200
H3219       H  0.60393213  0.72091561  0.32559561     0.08500
H3220       H  0.59564028  0.77655072  0.40742838     0.06000
H3221       H  0.67419404  0.71673115  0.39641144     0.05800
C3222       C  0.85507412  0.64622134  0.22055019     0.02900
C3223       C  0.88649882  0.65499035  0.22611496    -0.13300
C3224       C  0.90569802  0.63456070  0.24348693     0.00400
C3225       C  0.89229395  0.61025603  0.25880578    -0.11800
C3226       C  0.86791149  0.59635433  0.24424466     0.02900
C3227       C  0.84694129  0.61486648  0.22693380    -0.11200
H3228       H  0.89577570  0.67634862  0.21661163     0.08500
H3229       H  0.90599937  0.59692177  0.27530587     0.06000
H3230       H  0.82560366  0.60507611  0.21799218     0.05800
O3231       O  0.89706651  0.54933019  0.24484611    -0.73200
O3232       O  0.89791125  0.95676293  0.25558992    -0.74200
O3233       O  0.90571915  0.99764031  0.20561779    -0.62800
O3234       O  0.90503377  0.50863380  0.29474996    -0.71200
O3235       O  0.85341032  0.50791046  0.29637755    -0.70400
O3236       O  0.85411593  0.99719288  0.20379972    -0.62000
O3237       O  0.84628170  0.95788149  0.25556432    -0.74500
O3238       O  0.84547021  0.54701475  0.24459709    -0.73300
Cu3239     Cu  0.90355931  0.50311002  0.25019009     1.04600
Cu3240     Cu  0.84769264  0.50248083  0.25006771     1.04300
C3241       C  0.87008708  0.56259024  0.24388277     0.93000
C3242       C  0.87123546  0.94287679  0.25659216     0.92100
C3243       C  0.88103553  0.99649803  0.19027779     0.84300
C3244       C  0.88014781  0.50919936  0.30999770     0.90600
O3245       O  0.75541374  0.95787219  0.34643055    -0.73200
O3246       O  0.74439629  0.54698748  0.34562165    -0.74200
O3247       O  0.79619570  0.50791092  0.35357502    -0.62800
O3248       O  0.70362577  0.99715065  0.35427598    -0.71200
O3249       O  0.70544784  0.99760951  0.40588335    -0.70800
O3250       O  0.79456411  0.50863362  0.40520252    -0.62000
O3251       O  0.74465165  0.54931716  0.39722177    -0.74500
O3252       O  0.75543336  0.95674902  0.39806445    -0.73300
Cu3253     Cu  0.74988819  0.50246075  0.34785074     1.04600
Cu3254     Cu  0.75001051  0.50309588  0.40372300     1.04300
C3255       C  0.75644384  0.94286630  0.37138291     0.93000
C3256       C  0.74368577  0.56256961  0.37023693     0.92100
C3257       C  0.80981274  0.50920562  0.38031637     0.84300
C3258       C  0.69010751  0.99645567  0.38119957     0.90600
C3259       C  0.89375662  0.53260665  0.39394373     0.02900
C3260       C  0.90233523  0.52647703  0.36260087    -0.13300
C3261       C  0.88172414  0.50900920  0.34380216     0.00400
C3262       C  0.85721621  0.49418826  0.35739694    -0.11800
C3263       C  0.84361577  0.50902151  0.38189800     0.02900
C3264       C  0.86241097  0.52648959  0.40251482    -0.11200
H3265       H  0.92372933  0.53570415  0.35304345     0.08500
H3266       H  0.84369922  0.97766971  0.34387730     0.06000
H3267       H  0.85285012  0.53572416  0.42390676     0.05800
C3268       C  0.72040319  0.64621153  0.35518942     0.02900
C3269       C  0.72596260  0.65498599  0.38661634    -0.13300
C3270       C  0.74331725  0.63455029  0.40582390     0.00400
C3271       C  0.75863140  0.61023822  0.39242404    -0.11800
C3272       C  0.74406007  0.59633237  0.36804922     0.02900
C3273       C  0.72676534  0.61484742  0.34706714    -0.11200
H3274       H  0.71646557  0.67635077  0.39588880     0.08500
H3275       H  0.77512555  0.59690152  0.40613390     0.06000
H3276       H  0.71782016  0.60505386  0.32573032     0.05800
O3277       O  0.60400221  0.74489600  0.45424847    -0.73200
O3278       O  0.60401731  0.75690613  0.04703571    -0.74200
O3279       O  0.59644007  0.79569574  0.49457461    -0.62800
O3280       O  0.59537009  0.70641649  0.00683003    -0.71200
O3281       O  0.64694424  0.70404961  0.00657737    -0.70800
O3282       O  0.64804121  0.79685438  0.49461153    -0.62000
O3283       O  0.65560957  0.75639204  0.04520451    -0.74500
O3284       O  0.65558677  0.74418832  0.45589467    -0.73300
Cu3285     Cu  0.59783849  0.75101198  0.00067058     1.04600
Cu3286     Cu  0.65366954  0.75035324  0.00055723     1.04300
C3287       C  0.63085360  0.74346786  0.44058969     0.93000
C3288       C  0.63083175  0.75757337  0.06060723     0.92100
C3289       C  0.62136345  0.81078543  0.49365319     0.84300
C3290       C  0.61994155  0.69077785  0.00774959     0.90600
C3291       C  0.60668810  0.89633409  0.47422265     0.02900
C3292       C  0.63814646  0.90476734  0.48023417    -0.13300
C3293       C  0.65759600  0.88329856  0.49607598     0.00400
C3294       C  0.64450805  0.85775203  0.50948416    -0.11800
C3295       C  0.61995813  0.84474769  0.49440693     0.02900
C3296       C  0.59876974  0.86443988  0.47851779    -0.11200
H3297       H  0.64732850  0.92668589  0.47195660     0.08500
H3298       H  0.65825600  0.84357894  0.02523211     0.06000
H3299       H  0.57741293  0.85519123  0.46907649     0.05800
O3300       O  0.50673297  0.70644445  0.09553667    -0.73200
O3301       O  0.99442827  0.79571552  0.09659327    -0.74200
O3302       O  0.54690317  0.75695246  0.10416884    -0.62800
O3303       O  0.95413800  0.74489849  0.10415696    -0.71200
O3304       O  0.95577936  0.74421086  0.15574663    -0.70800
O3305       O  0.54507920  0.75645184  0.15576640    -0.62000
O3306       O  0.99446883  0.79688940  0.14819910    -0.74500
O3307       O  0.50648097  0.70409565  0.14711622    -0.73300
Cu3308     Cu  0.50054914  0.75103630  0.09799624     1.04600
Cu3309     Cu  0.50043743  0.75039516  0.15383190     1.04300
C3310       C  0.50765538  0.69081537  0.12011448     0.93000
C3311       C  0.99350390  0.81081130  0.12151657     0.92100
C3312       C  0.56047630  0.75762613  0.13098318     0.84300
C3313       C  0.94047884  0.74347342  0.13100903     0.90600
C3314       C  0.97405478  0.89635118  0.10685270     0.02900
C3315       C  0.97834713  0.86445767  0.09892902    -0.13300
C3316       C  0.99425708  0.84477085  0.12010515     0.00400
C3317       C  0.00935667  0.85777995  0.14464094    -0.11800
C3318       C  0.99594720  0.88331938  0.15774575     0.02900
C3319       C  0.98008624  0.90478626  0.13830980    -0.11200
H3320       H  0.96889072  0.85520629  0.07757813     0.08500
H3321       H  0.52511651  0.84360877  0.15837731     0.06000
H3322       H  0.97180891  0.92670283  0.14750139     0.05800
C3323       C  0.64542298  0.77842526  0.14554741     0.02900
C3324       C  0.65369013  0.77315058  0.11387396    -0.13300
C3325       C  0.63248996  0.75690842  0.09452830     0.00400
C3326       C  0.60769262  0.74233558  0.10784338    -0.11800
C3327       C  0.59439267  0.75694359  0.13263295     0.02900
C3328       C  0.61374907  0.77318789  0.15381991    -0.11200
H3329       H  0.67523717  0.78220643  0.10450332     0.08500
H3330       H  0.59385820  0.72634720  0.09402137     0.06000
H3331       H  0.60438719  0.78227012  0.17536248     0.05800
O3332       O  0.79407315  0.59825357  0.49351804    -0.73200
O3333       O  0.70521347  0.59700687  0.00547381    -0.74200
O3334       O  0.74387067  0.60585636  0.45323567    -0.62800
O3335       O  0.75520873  0.60541535  0.04595113    -0.71200
O3336       O  0.75428756  0.65701026  0.04483421    -0.70800
O3337       O  0.74338791  0.65744911  0.45521206    -0.62000
O3338       O  0.70262297  0.64859209  0.00539641    -0.74500
O3339       O  0.79533090  0.64987755  0.49438193    -0.73300
Cu3340     Cu  0.74961406  0.59954638  0.99954146     1.04600
Cu3341     Cu  0.74887675  0.65539387  0.99998033     1.04300
C3342       C  0.80913524  0.62317048  0.49290871     0.93000
C3343       C  0.68951542  0.62152037  0.00633784     0.92100
C3344       C  0.74271398  0.63273540  0.43974242     0.84300
C3345       C  0.75566737  0.63208583  0.05991719     0.90600
C3346       C  0.89360930  0.60917613  0.47053931     0.02900
C3347       C  0.90235649  0.64026330  0.47751187    -0.13300
C3348       C  0.88146139  0.65906838  0.49484329     0.00400
C3349       C  0.85633457  0.64562399  0.50871601    -0.11800
C3350       C  0.84293515  0.62157457  0.49315469     0.02900
C3351       C  0.86200811  0.60098333  0.47576535    -0.11200
H3352       H  0.92408766  0.64966522  0.46894057     0.08500
H3353       H  0.84251238  0.65901936  0.02518123     0.06000
H3354       H  0.85250363  0.57986216  0.46599974     0.05800
O3355       O  0.75692983  0.54570004  0.15509299    -0.73200
O3356       O  0.74464404  0.95642535  0.15615946    -0.74200
O3357       O  0.79723075  0.99488492  0.14754284    -0.62800
O3358       O  0.70446185  0.50693478  0.14751098    -0.71200
O3359       O  0.70630173  0.50642945  0.09591393    -0.70800
O3360       O  0.79559762  0.99417964  0.09595300    -0.62000
O3361       O  0.74490258  0.95406944  0.10458017    -0.74500
O3362       O  0.75690962  0.54686099  0.10348675    -0.73300
Cu3363     Cu  0.75081662  0.50102025  0.15369691     1.04600
Cu3364     Cu  0.75094251  0.50036755  0.09786103     1.04300
C3365       C  0.75786771  0.56078915  0.13016657     0.93000
C3366       C  0.74372872  0.94079270  0.13158302     0.92100
C3367       C  0.81089432  0.99345634  0.12069284     0.84300
C3368       C  0.69089708  0.50760854  0.12069222     0.90600
C3369       C  0.89596951  0.97208883  0.10685414     0.02900
C3370       C  0.90424245  0.97928313  0.13796529    -0.13300
C3371       C  0.88298827  0.99644569  0.15647776     0.00400
C3372       C  0.85802155  0.51008282  0.14271202    -0.11800
C3373       C  0.84481466  0.99404572  0.11886246     0.02900
C3374       C  0.86429444  0.97675665  0.09845497    -0.11200
H3375       H  0.92590736  0.97099153  0.14761207     0.08500
H3376       H  0.84403047  0.52655027  0.15591706     0.06000
H3377       H  0.85508288  0.96672791  0.07736432     0.05800
C3378       C  0.77733165  0.64632625  0.14481878     0.02900
C3379       C  0.77303366  0.61443502  0.15274476    -0.13300
C3380       C  0.75712389  0.59474938  0.13156921     0.00400
C3381       C  0.74203210  0.60775710  0.10702703    -0.11800
C3382       C  0.75543719  0.63329735  0.09392460     0.02900
C3383       C  0.77129908  0.65476127  0.11336145    -0.11200
H3384       H  0.78248513  0.60518401  0.17409854     0.08500
H3385       H  0.72627333  0.59358746  0.09329012     0.06000
H3386       H  0.77957427  0.67667719  0.10417061     0.05800
O3387       O  0.65494029  0.54567950  0.25707215    -0.73200
O3388       O  0.65600424  0.95640029  0.24482795    -0.74200
O3389       O  0.64735741  0.50687891  0.20461884    -0.62800
O3390       O  0.64737795  0.99488819  0.29740379    -0.71200
O3391       O  0.59579316  0.99419549  0.29576126    -0.70800
O3392       O  0.59576520  0.50637892  0.20645440    -0.62000
O3393       O  0.60442975  0.95404695  0.24508575    -0.74500
O3394       O  0.60333936  0.54685328  0.25703699    -0.73300
Cu3395     Cu  0.65353854  0.50099456  0.25098499     1.04600
Cu3396     Cu  0.59770742  0.50035128  0.25110209     1.04300
C3397       C  0.63001883  0.56077685  0.25799217     0.93000
C3398       C  0.63143129  0.94076824  0.24391453     0.92100
C3399       C  0.62054187  0.50755164  0.19104967     0.84300
C3400       C  0.62052730  0.99346893  0.31106443     0.90600
C3401       C  0.60668228  0.97206785  0.39613449     0.02900
C3402       C  0.59827986  0.97676149  0.36446125    -0.13300
C3403       C  0.61868942  0.99405375  0.34498864     0.00400
C3404       C  0.64254025  0.51007525  0.35820810    -0.11800
C3405       C  0.65631024  0.99640611  0.38315733     0.02900
C3406       C  0.63779711  0.97923891  0.40440540    -0.11200
H3407       H  0.57718653  0.96674715  0.35524479     0.08500
H3408       H  0.65574807  0.52654465  0.34422505     0.06000
H3409       H  0.64744475  0.97092931  0.42606399     0.05800
O3410       O  0.50525563  0.64861875  0.20282177    -0.73200
O3411       O  0.99426319  0.64986551  0.29554137    -0.74200
O3412       O  0.54470303  0.65701576  0.25448194    -0.62800
O3413       O  0.95508145  0.65746014  0.24360144    -0.71200
O3414       O  0.95310964  0.60586731  0.24405316    -0.70800
O3415       O  0.54582071  0.60542041  0.25537554    -0.62000
O3416       O  0.99339982  0.59824225  0.29425190    -0.74500
O3417       O  0.50533834  0.59703267  0.20538828    -0.73300
Cu3418     Cu  0.49984957  0.65540303  0.24908379     1.04600
Cu3419     Cu  0.49941400  0.59955536  0.24979058     1.04300
C3420       C  0.50619825  0.62155138  0.18970069     0.93000
C3421       C  0.99279208  0.62315115  0.30933029     0.92100
C3422       C  0.55978623  0.63208897  0.25583563     0.84300
C3423       C  0.93961524  0.63274674  0.24290375     0.90600
C3424       C  0.97036580  0.60915976  0.39378552     0.02900
C3425       C  0.97733256  0.64024844  0.40253220    -0.13300
C3426       C  0.99469114  0.65903797  0.38164852     0.00400
C3427       C  0.00859809  0.64557538  0.35654728    -0.11800
C3428       C  0.99303741  0.62153576  0.34313118     0.02900
C3429       C  0.97562214  0.60095607  0.36218902    -0.11200
H3430       H  0.96873844  0.64966249  0.42425216     0.08500
H3431       H  0.52507801  0.65896227  0.34273747     0.06000
H3432       H  0.96585736  0.57983837  0.35267548     0.05800
C3433       C  0.64469964  0.64632126  0.27742753     0.02900
C3434       C  0.65261769  0.61442576  0.27312819    -0.13300
C3435       C  0.63142910  0.59473909  0.25723563     0.00400
C3436       C  0.60688084  0.60775073  0.24215830    -0.11800
C3437       C  0.59379114  0.63329534  0.25557477     0.02900
C3438       C  0.61324047  0.65475914  0.27141969    -0.11200
H3439       H  0.67397338  0.60517182  0.28257021     0.08500
H3440       H  0.59313193  0.59358115  0.22640958     0.06000
H3441       H  0.60405717  0.67667648  0.27970414     0.05800
C3442       C  0.53014393  0.60631621  0.10625989     0.02900
C3443       C  0.52471562  0.63780814  0.09758368    -0.13300
C3444       C  0.50705752  0.65694526  0.11796676     0.00400
C3445       C  0.49131225  0.64343083  0.14194931    -0.11800
C3446       C  0.50589803  0.61912537  0.15596809     0.02900
C3447       C  0.52345660  0.59813057  0.13755936    -0.11200
H3448       H  0.53452084  0.64716351  0.07637127     0.08500
H3449       H  0.97461027  0.65712709  0.15518706     0.06000
H3450       H  0.53238618  0.57678393  0.14738991     0.05800
C3451       C  0.60595621  0.52843210  0.10611986     0.02900
C3452       C  0.59768486  0.52314644  0.13778946    -0.13300
C3453       C  0.61888002  0.50688826  0.15712915     0.00400
C3454       C  0.64367520  0.49231108  0.14380942    -0.11800
C3455       C  0.65698150  0.50692917  0.11903090     0.02900
C3456       C  0.63763062  0.52318954  0.09784901    -0.11200
H3457       H  0.57613849  0.53220626  0.14716233     0.08500
H3458       H  0.65750417  0.97631425  0.15762591     0.06000
H3459       H  0.64699681  0.53227921  0.07631231     0.05800
C3460       C  0.60608330  0.60629754  0.03028822     0.02900
C3461       C  0.59740459  0.63778481  0.02483334    -0.13300
C3462       C  0.61778424  0.65690659  0.00715831     0.00400
C3463       C  0.64176452  0.64337621  0.99142132    -0.11800
C3464       C  0.65578606  0.61908552  0.00603138     0.02900
C3465       C  0.63738166  0.59810690  0.02360901    -0.11200
H3466       H  0.57619402  0.64714952  0.03463365     0.08500
H3467       H  0.65500156  0.65705941  0.47471014     0.06000
H3468       H  0.64721438  0.57676954  0.03255790     0.05800
C3469       C  0.70852143  0.70997629  0.29158045     0.86200
C3470       C  0.68593173  0.72748793  0.31379629    -0.54000
C3471       C  0.66721210  0.70895265  0.33202353     0.09200
C3472       C  0.67233223  0.67392188  0.32622138     0.20100
C3473       C  0.72593418  0.68732212  0.31360527    -0.54700
C3474       C  0.70734198  0.66868234  0.33181988     0.09300
C3475       C  0.68663501  0.68821866  0.27281065    -0.54300
C3476       C  0.66764627  0.66930471  0.29081527     0.09800
H3477       H  0.68524483  0.75266273  0.31530598     0.14400
H3478       H  0.65721574  0.65883901  0.34077212     0.00100
H3479       H  0.75110577  0.68653966  0.31501266     0.14700
H3480       H  0.68615885  0.68772444  0.24762186     0.14400
C3481       C  0.79146719  0.70998233  0.20864495     0.86200
C3482       C  0.77270769  0.68822565  0.18675132    -0.54000
C3483       C  0.79071734  0.66931251  0.16776430     0.09200
C3484       C  0.82612026  0.67392839  0.17246115     0.20100
C3485       C  0.81348768  0.68733014  0.22606455    -0.54700
C3486       C  0.83171004  0.66869119  0.20747629     0.09300
C3487       C  0.81368405  0.72749458  0.18606122    -0.54300
C3488       C  0.83191822  0.70895964  0.16734496     0.09800
H3489       H  0.74752120  0.68773024  0.18626984     0.14400
H3490       H  0.84067542  0.65884510  0.15734615     0.00100
H3491       H  0.81488647  0.68654849  0.25123869     0.14700
H3492       H  0.81518910  0.75266953  0.18537563     0.14400
C3493       C  0.79427826  0.79558797  0.29440470     0.86200
C3494       C  0.81636042  0.77766092  0.31648299    -0.54000
C3495       C  0.83485977  0.79600684  0.33498210     0.09200
C3496       C  0.82969895  0.83118218  0.32982634     0.20100
C3497       C  0.77624063  0.81772886  0.31653614    -0.54700
C3498       C  0.79450138  0.83632668  0.33504410     0.09300
C3499       C  0.81640377  0.81773020  0.27636425    -0.54300
C3500       C  0.83491185  0.83632784  0.29462618     0.09800
H3501       H  0.81723312  0.75246840  0.31735495     0.14400
H3502       H  0.84455869  0.84609548  0.34468788     0.00100
H3503       H  0.75104663  0.81855581  0.31744282     0.14700
H3504       H  0.81730687  0.81855729  0.25116806     0.14400
C3505       C  0.70894387  0.79259113  0.20906919     0.86200
C3506       C  0.68716155  0.77383045  0.18727632    -0.54000
C3507       C  0.66830795  0.79185006  0.16842805     0.09200
C3508       C  0.67299113  0.82724673  0.17312853     0.20100
C3509       C  0.72651263  0.81470309  0.18648432    -0.54700
C3510       C  0.70802703  0.83292906  0.16789629     0.09300
C3511       C  0.68635202  0.81469045  0.22664878    -0.54300
C3512       C  0.66775773  0.83291667  0.20817025     0.09800
H3513       H  0.68662060  0.74864347  0.18672735     0.14400
H3514       H  0.65794682  0.84179433  0.15808951     0.00100
H3515       H  0.75169060  0.81614021  0.18569217     0.14700
H3516       H  0.68556108  0.81612048  0.25182947     0.14400
C3517       C  0.77262857  0.77379244  0.27275622     0.86200
C3518       C  0.75079689  0.79187680  0.25092421    -0.54000
C3519       C  0.73177344  0.77459488  0.23189593     0.09200
C3520       C  0.73713982  0.73827942  0.23725812     0.20100
C3521       C  0.75066341  0.75188494  0.29086386    -0.54700
C3522       C  0.73159335  0.73284987  0.27358794     0.09300
C3523       C  0.79073812  0.75188772  0.25078883    -0.54300
C3524       C  0.77346803  0.73285310  0.23171487     0.09800
H3525       H  0.75049236  0.81710242  0.25062354     0.14400
H3526       H  0.72231032  0.72346529  0.22242320     0.00100
H3527       H  0.75027874  0.75157460  0.31608871     0.14700
H3528       H  0.81596101  0.75157828  0.25040578     0.14400
C3529       C  0.54243070  0.54260866  0.54260646     0.86200
C3530       C  0.52486120  0.56471916  0.56519638    -0.54000
C3531       C  0.54334648  0.58294373  0.58378398     0.09200
C3532       C  0.57838274  0.57726094  0.57854639     0.20100
C3533       C  0.56501671  0.56470941  0.52502655    -0.54700
C3534       C  0.58361017  0.58293437  0.54350467     0.09300
C3535       C  0.56421816  0.52384608  0.56439374    -0.54300
C3536       C  0.58307158  0.54186319  0.58324134     0.09800
H3537       H  0.49968306  0.56615649  0.56599196     0.14400
H3538       H  0.59342702  0.59180647  0.59358539     0.00100
H3539       H  0.56580554  0.56614009  0.49984588     0.14700
H3540       H  0.56476187  0.49865907  0.56494045     0.14400
C3541       C  0.95709586  0.54561037  0.95727716     0.86200
C3542       C  0.97513289  0.56774577  0.93514466    -0.54000
C3543       C  0.95687208  0.58634406  0.91663563     0.09200
C3544       C  0.92167400  0.58120408  0.92185259     0.20100
C3545       C  0.93497002  0.56775718  0.97531622    -0.54700
C3546       C  0.91646166  0.58635497  0.95705243     0.09300
C3547       C  0.93501513  0.52768319  0.93520153    -0.54300
C3548       C  0.91651415  0.54602782  0.91670152     0.09800
H3549       H  0.00032685  0.56856929  0.93423849     0.14400
H3550       H  0.90681343  0.59611713  0.90698964     0.00100
H3551       H  0.93406589  0.56858629  0.00051231     0.14700
H3552       H  0.93414382  0.50249053  0.93433253     0.14400
C3553       C  0.95991367  0.96000924  0.54303115     0.86200
C3554       C  0.97867600  0.93824881  0.56492082    -0.54000
C3555       C  0.96066859  0.91933833  0.58390870     0.09200
C3556       C  0.92526600  0.92395955  0.57921780     0.20100
C3557       C  0.93789010  0.93736074  0.52561365    -0.54700
C3558       C  0.91967091  0.91872412  0.54420410     0.09300
C3559       C  0.93769882  0.97752440  0.56562010    -0.54300
C3560       C  0.91946828  0.95899050  0.58433854     0.09800
H3561       H  0.50386256  0.93774933  0.56539945     0.14400
H3562       H  0.91071379  0.90887756  0.59433396     0.00100
H3563       H  0.93648832  0.93657859  0.50043973     0.14700
H3564       H  0.93619112  0.50269614  0.56631214     0.14400
C3565       C  0.54285960  0.95999381  0.96008139     0.86200
C3566       C  0.56544443  0.97750534  0.93786297    -0.54000
C3567       C  0.58416522  0.95896991  0.91963240     0.09200
C3568       C  0.57904963  0.92393892  0.92543343     0.20100
C3569       C  0.52544727  0.93733986  0.93805732    -0.54700
C3570       C  0.54403960  0.91869892  0.91983944     0.09300
C3571       C  0.56475147  0.93823561  0.97884684    -0.54300
C3572       C  0.58374057  0.91932166  0.96083875     0.09800
H3573       H  0.56612780  0.50268218  0.93636009     0.14400
H3574       H  0.59416669  0.90885547  0.91088066     0.00100
H3575       H  0.50027565  0.93655704  0.93665451     0.14700
H3576       H  0.56522988  0.93774015  0.50403551     0.14400
C3577       C  0.97874595  0.52381384  0.97892380     0.86200
C3578       C  0.50057656  0.54189626  0.50075488    -0.54000
C3579       C  0.51960245  0.52461274  0.51978078     0.09200
C3580       C  0.51424134  0.98829736  0.51441179     0.20100
C3581       C  0.50071134  0.50190544  0.96081265    -0.54700
C3582       C  0.51978634  0.98286705  0.97808034     0.09300
C3583       C  0.96063862  0.50191108  0.50089096    -0.54300
C3584       C  0.97791260  0.98287598  0.51995890     0.09800
H3585       H  0.50087851  0.56712186  0.50105678     0.14400
H3586       H  0.52907291  0.97348174  0.52924525     0.00100
H3587       H  0.50109432  0.50159672  0.93558776     0.14700
H3588       H  0.93541578  0.50160525  0.50127585     0.14400
C3589       C  0.85775981  0.85914913  0.78113722     0.02900
C3590       C  0.84900675  0.89023693  0.77416913    -0.13300
C3591       C  0.86989487  0.90904080  0.75683248     0.00400
C3592       C  0.89501688  0.89559389  0.74294881    -0.11800
C3593       C  0.90842794  0.87155160  0.75851309     0.02900
C3594       C  0.88936313  0.85095871  0.77590655    -0.11200
H3595       H  0.82727755  0.89964044  0.78274844     0.08500
H3596       H  0.90883243  0.90898908  0.72648035     0.06000
H3597       H  0.89887518  0.82983993  0.78567262     0.05800
C3598       C  0.78101056  0.85914747  0.85789446     0.02900
C3599       C  0.77576928  0.85095434  0.88949635    -0.13300
C3600       C  0.75836162  0.87154290  0.90855667     0.00400
C3601       C  0.74279226  0.89557780  0.89513910    -0.11800
C3602       C  0.75668955  0.90903212  0.87003006     0.02900
C3603       C  0.77404019  0.89023486  0.84914373    -0.11200
H3604       H  0.78553836  0.82983803  0.89901110     0.08500
H3605       H  0.72631419  0.90896886  0.90894998     0.06000
H3606       H  0.78262680  0.89964236  0.82741904     0.05800
C3607       C  0.72122936  0.85630257  0.64542497     0.02900
C3608       C  0.72666993  0.88778865  0.65411174    -0.13300
C3609       C  0.74433150  0.90692259  0.63373248     0.00400
C3610       C  0.76006973  0.89340642  0.60974423    -0.11800
C3611       C  0.74546881  0.86911733  0.59571677     0.02900
C3612       C  0.72790591  0.84812492  0.61412031    -0.11200
H3613       H  0.71686968  0.89714286  0.67532804     0.08500
H3614       H  0.77677481  0.90709792  0.59650871     0.06000
H3615       H  0.71896693  0.82678663  0.60428315     0.05800
C3616       C  0.85541615  0.72206160  0.64483402     0.02900
C3617       C  0.88708699  0.72674365  0.65323965    -0.13300
C3618       C  0.90655753  0.74405008  0.63284124     0.00400
C3619       C  0.89334377  0.76008970  0.60899882    -0.11800
C3620       C  0.86838433  0.74644326  0.59522232     0.02900
C3621       C  0.84714079  0.72926360  0.61372581    -0.11200
H3622       H  0.89630226  0.71671408  0.67432867     0.08500
H3623       H  0.90732706  0.77656519  0.59579901     0.06000
H3624       H  0.82548071  0.72096755  0.60407474     0.05800
O3625       O  0.70557374  0.85542800  0.99628726    -0.73200
O3626       O  0.79828086  0.85588635  0.50764914    -0.74200
O3627       O  0.74603524  0.84703846  0.54629145    -0.62800
O3628       O  0.75801343  0.84825369  0.95743610    -0.71200
O3629       O  0.75712227  0.89987641  0.95614781    -0.70800
O3630       O  0.74611384  0.89862392  0.54887059    -0.62000
O3631       O  0.79629327  0.90747894  0.50809654    -0.74500
O3632       O  0.70667570  0.90702322  0.99720082    -0.73300
Cu3633     Cu  0.75197972  0.84956651  0.50189324     1.04600
Cu3634     Cu  0.75152704  0.90541452  0.50260753     1.04300
C3635       C  0.69160082  0.88209528  0.99582986     0.93000
C3636       C  0.81176711  0.88276794  0.50879653     0.92100
C3637       C  0.74516941  0.87155357  0.56198483     0.84300
C3638       C  0.75860834  0.87316194  0.94235811     0.90600
O3639       O  0.90591012  0.79703272  0.50711890    -0.73200
O3640       O  0.90508305  0.70790097  0.99612845    -0.74200
O3641       O  0.89796639  0.75793567  0.95533235    -0.62800
O3642       O  0.89725714  0.74720026  0.54790286    -0.71200
O3643       O  0.84565392  0.74767002  0.54608271    -0.70800
O3644       O  0.84634297  0.75867204  0.95695264    -0.62000
O3645       O  0.85345338  0.70679974  0.99610245    -0.74500
O3646       O  0.85431433  0.79936433  0.50686141    -0.73300
Cu3647     Cu  0.90368019  0.75249858  0.50164106     1.04600
Cu3648     Cu  0.84781426  0.75314668  0.50151427     1.04300
C3649       C  0.88129534  0.81261638  0.50782662     0.93000
C3650       C  0.88012669  0.69290480  0.99509640     0.92100
C3651       C  0.87123117  0.75922898  0.94170785     0.84300
C3652       C  0.87033706  0.74650936  0.56142297     0.90600
C3653       C  0.89630868  0.89625291  0.53113556     0.02900
C3654       C  0.90444367  0.86489484  0.52476082    -0.13300
C3655       C  0.88347433  0.84638031  0.50745465     0.00400
C3656       C  0.85909324  0.86028295  0.49288837    -0.11800
C3657       C  0.84568404  0.88458697  0.50820812     0.02900
C3658       C  0.86488138  0.90502098  0.52557394    -0.11200
H3659       H  0.92578166  0.85510454  0.53370526     0.08500
H3660       H  0.84538995  0.84694756  0.97638894     0.06000
H3661       H  0.85560162  0.92638071  0.53507532     0.05800
C3662       C  0.85761797  0.78259172  0.85774479     0.02900
C3663       C  0.88896559  0.77647667  0.84917634    -0.13300
C3664       C  0.90776944  0.75902806  0.86980321     0.00400
C3665       C  0.89417740  0.74420980  0.89431587    -0.11800
C3666       C  0.86966176  0.75903081  0.90790215     0.02900
C3667       C  0.84904264  0.77648079  0.88909238    -0.11200
H3668       H  0.89852153  0.78569947  0.82777815     0.08500
H3669       H  0.90769833  0.72770251  0.90784115     0.06000
H3670       H  0.82764473  0.78570822  0.89864430     0.05800
C3671       C  0.64528445  0.85628439  0.72138569     0.02900
C3672       C  0.65396600  0.88776884  0.72684135    -0.13300
C3673       C  0.63358578  0.90689756  0.74451190     0.00400
C3674       C  0.60960034  0.89337679  0.76024478    -0.11800
C3675       C  0.59557851  0.86908970  0.74563336     0.02900
C3676       C  0.61398383  0.84810345  0.72806025    -0.11200
H3677       H  0.67517899  0.89712685  0.71704371     0.08500
H3678       H  0.59636244  0.90706523  0.77695338     0.06000
H3679       H  0.60415029  0.82676789  0.71911124     0.05800
O3680       O  0.95730067  0.84824683  0.75814576    -0.73200
O3681       O  0.54615613  0.84701454  0.74619037    -0.74200
O3682       O  0.50750048  0.85585896  0.79843071    -0.62800
O3683       O  0.99616580  0.85542745  0.70571300    -0.71200
O3684       O  0.99706990  0.90702238  0.70684041    -0.70800
O3685       O  0.50796711  0.90745186  0.79645824    -0.62000
O3686       O  0.54873618  0.89859972  0.74627559    -0.74500
O3687       O  0.95602148  0.89987037  0.75728912    -0.73300
Cu3688     Cu  0.50175807  0.84955031  0.75212287     1.04600
Cu3689     Cu  0.50247789  0.90539872  0.75169208     1.04300
C3690       C  0.94222794  0.87315927  0.75875940     0.93000
C3691       C  0.56184904  0.87152793  0.74532941     0.92100
C3692       C  0.50865258  0.88273800  0.81192558     0.84300
C3693       C  0.99570417  0.88210047  0.69175228     0.90600
O3694       O  0.95681507  0.75863930  0.84648555    -0.73200
O3695       O  0.54593066  0.74760923  0.84578100    -0.74200
O3696       O  0.99594903  0.70675181  0.85360959    -0.62800
O3697       O  0.50672721  0.79932132  0.85445412    -0.71200
O3698       O  0.50699695  0.79699692  0.90605407    -0.70800
O3699       O  0.99597781  0.70788047  0.90524340    -0.62000
O3700       O  0.54776323  0.74715246  0.89738812    -0.74500
O3701       O  0.95519692  0.75792466  0.89811352    -0.73300
Cu3702     Cu  0.50136953  0.75309942  0.84795392     1.04600
Cu3703     Cu  0.50150474  0.75246958  0.90382610     1.04300
C3704       C  0.94157276  0.75921383  0.87137565     0.93000
C3705       C  0.56127580  0.74645544  0.87046187     0.92100
C3706       C  0.99494064  0.69287218  0.88029227     0.84300
C3707       C  0.50770080  0.81257686  0.88143777     0.90600
C3708       C  0.53097809  0.89622310  0.89647419     0.02900
C3709       C  0.52541248  0.90499259  0.86504699    -0.13300
C3710       C  0.50805833  0.88455406  0.84584397     0.00400
C3711       C  0.49275049  0.86024395  0.85924776    -0.11800
C3712       C  0.50732649  0.84634097  0.88362222     0.02900
C3713       C  0.52462163  0.86485934  0.90460033    -0.11200
H3714       H  0.53490432  0.92635629  0.85577086     0.08500
H3715       H  0.97625554  0.84690692  0.84554140     0.06000
H3716       H  0.53357054  0.85506871  0.92593718     0.05800
C3717       C  0.64469611  0.72205179  0.85552255     0.02900
C3718       C  0.61358171  0.72922758  0.84725216    -0.13300
C3719       C  0.59507202  0.74640400  0.86849797     0.00400
C3720       C  0.60884598  0.76007522  0.89344721    -0.11800
C3721       C  0.63269351  0.74404953  0.90666533     0.02900
C3722       C  0.65310080  0.72674864  0.88719461    -0.11200
H3723       H  0.60393212  0.72091556  0.82559562     0.08500
H3724       H  0.59564030  0.77655075  0.90742831     0.06000
H3725       H  0.67419412  0.71673134  0.89641138     0.05800
C3726       C  0.85507411  0.64622133  0.72055018     0.02900
C3727       C  0.88649882  0.65499041  0.72611493    -0.13300
C3728       C  0.90569800  0.63456074  0.74348692     0.00400
C3729       C  0.89229396  0.61025606  0.75880574    -0.11800
C3730       C  0.86791151  0.59635433  0.74424466     0.02900
C3731       C  0.84694127  0.61486650  0.72693388    -0.11200
H3732       H  0.89577565  0.67634861  0.71661165     0.08500
H3733       H  0.90599943  0.59692177  0.77530584     0.06000
H3734       H  0.82560359  0.60507614  0.71799235     0.05800
O3735       O  0.89706652  0.54933021  0.74484608    -0.73200
O3736       O  0.89791125  0.95676292  0.75558991    -0.74200
O3737       O  0.90571917  0.99764029  0.70561777    -0.62800
O3738       O  0.90503378  0.50863383  0.79474996    -0.71200
O3739       O  0.85341033  0.50791044  0.79637759    -0.70400
O3740       O  0.85411594  0.99719285  0.70379969    -0.62000
O3741       O  0.84628171  0.95788146  0.75556429    -0.74500
O3742       O  0.84547022  0.54701473  0.74459712    -0.73300
Cu3743     Cu  0.90355932  0.50311007  0.75019007     1.04600
Cu3744     Cu  0.84769265  0.50248082  0.75006776     1.04300
C3745       C  0.87008709  0.56259024  0.74388275     0.93000
C3746       C  0.87123547  0.94287676  0.75659213     0.92100
C3747       C  0.88103555  0.99649799  0.69027777     0.84300
C3748       C  0.88014783  0.50919934  0.80999771     0.90600
O3749       O  0.75541378  0.95787218  0.84643051    -0.73200
O3750       O  0.74439630  0.54698747  0.84562163    -0.74200
O3751       O  0.79619571  0.50791089  0.85357499    -0.62800
O3752       O  0.70362578  0.99715061  0.85427595    -0.71200
O3753       O  0.70544785  0.99760950  0.90588332    -0.70800
O3754       O  0.79456413  0.50863360  0.90520251    -0.62000
O3755       O  0.74465166  0.54931716  0.89722176    -0.74500
O3756       O  0.75543337  0.95674902  0.89806441    -0.73300
Cu3757     Cu  0.74988819  0.50246072  0.84785072     1.04600
Cu3758     Cu  0.75001052  0.50309586  0.90372310     1.04300
C3759       C  0.75644386  0.94286630  0.87138287     0.93000
C3760       C  0.74368578  0.56256960  0.87023690     0.92100
C3761       C  0.80981275  0.50920559  0.88031635     0.84300
C3762       C  0.69010752  0.99645564  0.88119954     0.90600
C3763       C  0.89375663  0.53260664  0.89394373     0.02900
C3764       C  0.90233525  0.52647701  0.86260088    -0.13300
C3765       C  0.88172417  0.50900917  0.84380216     0.00400
C3766       C  0.85721623  0.49418823  0.85739692    -0.11800
C3767       C  0.84361578  0.50902149  0.88189797     0.02900
C3768       C  0.86241097  0.52648957  0.90251480    -0.11200
H3769       H  0.92372935  0.53570414  0.85304345     0.08500
H3770       H  0.84369914  0.97766979  0.84387728     0.06000
H3771       H  0.85285011  0.53572414  0.92390672     0.05800
C3772       C  0.72040319  0.64621153  0.85518940     0.02900
C3773       C  0.72596262  0.65498596  0.88661630    -0.13300
C3774       C  0.74331724  0.63455028  0.90582389     0.00400
C3775       C  0.75863140  0.61023822  0.89242402    -0.11800
C3776       C  0.74406010  0.59633237  0.86804919     0.02900
C3777       C  0.72676535  0.61484742  0.84706711    -0.11200
H3778       H  0.71646559  0.67635082  0.89588879     0.08500
H3779       H  0.77512556  0.59690150  0.90613390     0.06000
H3780       H  0.71782016  0.60505387  0.82573029     0.05800
O3781       O  0.60400222  0.74489598  0.95424846    -0.73200
O3782       O  0.60401731  0.75690610  0.54703578    -0.74200
O3783       O  0.59644008  0.79569573  0.99457453    -0.62800
O3784       O  0.59537009  0.70641647  0.50683003    -0.71200
O3785       O  0.64694424  0.70404959  0.50657748    -0.70800
O3786       O  0.64804122  0.79685437  0.99461152    -0.62000
O3787       O  0.65560957  0.75639203  0.54520450    -0.74500
O3788       O  0.65558679  0.74418832  0.95589466    -0.73300
Cu3789     Cu  0.59783849  0.75101197  0.50067064     1.04600
Cu3790     Cu  0.65366953  0.75035324  0.50055725     1.04300
C3791       C  0.63085360  0.74346786  0.94058968     0.93000
C3792       C  0.63083178  0.75757335  0.56060725     0.92100
C3793       C  0.62136346  0.81078542  0.99365316     0.84300
C3794       C  0.61994155  0.69077784  0.50774967     0.90600
C3795       C  0.60668812  0.89633407  0.97422261     0.02900
C3796       C  0.63814648  0.90476731  0.98023414    -0.13300
C3797       C  0.65759600  0.88329854  0.99607599     0.00400
C3798       C  0.64450803  0.85775202  0.00948418    -0.11800
C3799       C  0.61995814  0.84474768  0.99440691     0.02900
C3800       C  0.59876975  0.86443985  0.97851776    -0.11200
H3801       H  0.64732852  0.92668586  0.97195657     0.08500
H3802       H  0.65825605  0.84357894  0.52523207     0.06000
H3803       H  0.57741295  0.85519120  0.96907645     0.05800
O3804       O  0.50673298  0.70644445  0.59553667    -0.73200
O3805       O  0.99442824  0.79571550  0.59659336    -0.74200
O3806       O  0.54690317  0.75695243  0.60416888    -0.62800
O3807       O  0.95413801  0.74489846  0.60415693    -0.71200
O3808       O  0.95577937  0.74421089  0.65574659    -0.70800
O3809       O  0.54507923  0.75645188  0.65576643    -0.62000
O3810       O  0.99446880  0.79688946  0.64819919    -0.74500
O3811       O  0.50648098  0.70409570  0.64711622    -0.73300
Cu3812     Cu  0.50054915  0.75103629  0.59799624     1.04600
Cu3813     Cu  0.50043744  0.75039521  0.65383190     1.04300
C3814       C  0.50765540  0.69081539  0.62011450     0.93000
C3815       C  0.99350384  0.81081131  0.62151664     0.92100
C3816       C  0.56047631  0.75762610  0.63098320     0.84300
C3817       C  0.94047886  0.74347340  0.63100900     0.90600
C3818       C  0.97405479  0.89635120  0.60685270     0.02900
C3819       C  0.97834711  0.86445768  0.59892901    -0.13300
C3820       C  0.99425705  0.84477087  0.62010517     0.00400
C3821       C  0.00935669  0.85778002  0.64464088    -0.11800
C3822       C  0.99594720  0.88331940  0.65774573     0.02900
C3823       C  0.98008627  0.90478630  0.63830977    -0.11200
H3824       H  0.96889069  0.85520631  0.57757819     0.08500
H3825       H  0.52511661  0.84360885  0.65837728     0.06000
H3826       H  0.97180896  0.92670290  0.64750134     0.05800
C3827       C  0.64542298  0.77842528  0.64554739     0.02900
C3828       C  0.65369013  0.77315067  0.61387392    -0.13300
C3829       C  0.63249000  0.75690842  0.59452830     0.00400
C3830       C  0.60769266  0.74233557  0.60784337    -0.11800
C3831       C  0.59439268  0.75694357  0.63263295     0.02900
C3832       C  0.61374909  0.77318788  0.65381985    -0.11200
H3833       H  0.67523711  0.78220657  0.60450329     0.08500
H3834       H  0.59385824  0.72634716  0.59402138     0.06000
H3835       H  0.60438719  0.78227016  0.67536247     0.05800
O3836       O  0.79407316  0.59825355  0.99351802    -0.73200
O3837       O  0.70521341  0.59700684  0.50547393    -0.74200
O3838       O  0.74387070  0.60585635  0.95323566    -0.62800
O3839       O  0.75520875  0.60541541  0.54595114    -0.71200
O3840       O  0.75428756  0.65701030  0.54483417    -0.70800
O3841       O  0.74338792  0.65744912  0.95521205    -0.62000
O3842       O  0.70262296  0.64859204  0.50539638    -0.74500
O3843       O  0.79533092  0.64987754  0.99438190    -0.73300
Cu3844     Cu  0.74961403  0.59954638  0.49954150     1.04600
Cu3845     Cu  0.74887674  0.65539378  0.49998033     1.04300
C3846       C  0.80913524  0.62317046  0.99290867     0.93000
C3847       C  0.68951538  0.62152034  0.50633785     0.92100
C3848       C  0.74271399  0.63273539  0.93974242     0.84300
C3849       C  0.75566740  0.63208590  0.55991718     0.90600
C3850       C  0.89360930  0.60917611  0.97053929     0.02900
C3851       C  0.90235648  0.64026328  0.97751185    -0.13300
C3852       C  0.88146139  0.65906832  0.99484332     0.00400
C3853       C  0.85633460  0.64562389  0.00871602    -0.11800
C3854       C  0.84293515  0.62157452  0.99315465     0.02900
C3855       C  0.86200812  0.60098329  0.97576530    -0.11200
H3856       H  0.92408765  0.64966522  0.96894056     0.08500
H3857       H  0.84251237  0.65901947  0.52518115     0.06000
H3858       H  0.85250364  0.57986213  0.96599968     0.05800
O3859       O  0.75692984  0.54570005  0.65509299    -0.73200
O3860       O  0.74464405  0.95642534  0.65615948    -0.74200
O3861       O  0.79723076  0.99488490  0.64754290    -0.62800
O3862       O  0.70446185  0.50693474  0.64751098    -0.71200
O3863       O  0.70630176  0.50642957  0.59591393    -0.70800
O3864       O  0.79559764  0.99417963  0.59595306    -0.62000
O3865       O  0.74490258  0.95406940  0.60458020    -0.74500
O3866       O  0.75690964  0.54686102  0.60348675    -0.73300
Cu3867     Cu  0.75081663  0.50102023  0.65369700     1.04600
Cu3868     Cu  0.75094252  0.50036756  0.59786114     1.04300
C3869       C  0.75786768  0.56078919  0.63016657     0.93000
C3870       C  0.74372872  0.94079267  0.63158307     0.92100
C3871       C  0.81089433  0.99345635  0.62069290     0.84300
C3872       C  0.69089709  0.50760856  0.62069221     0.90600
C3873       C  0.89596951  0.97208882  0.60685415     0.02900
C3874       C  0.90424248  0.97928311  0.63796529    -0.13300
C3875       C  0.88298830  0.99644568  0.65647777     0.00400
C3876       C  0.85802156  0.51008280  0.64271199    -0.11800
C3877       C  0.84481467  0.99404576  0.61886250     0.02900
C3878       C  0.86429442  0.97675665  0.59845505    -0.11200
H3879       H  0.92590739  0.97099150  0.64761205     0.08500
H3880       H  0.84403049  0.52655026  0.65591703     0.06000
H3881       H  0.85508279  0.96672785  0.57736439     0.05800
C3882       C  0.77733166  0.64632628  0.64481878     0.02900
C3883       C  0.77303362  0.61443505  0.65274479    -0.13300
C3884       C  0.75712380  0.59474944  0.63156921     0.00400
C3885       C  0.74203208  0.60775722  0.60702703    -0.11800
C3886       C  0.75543720  0.63329745  0.59392459     0.02900
C3887       C  0.77129911  0.65476138  0.61336145    -0.11200
H3888       H  0.78248505  0.60518406  0.67409846     0.08500
H3889       H  0.72627330  0.59358758  0.59329005     0.06000
H3890       H  0.77957429  0.67667725  0.60417068     0.05800
O3891       O  0.65494030  0.54567948  0.75707214    -0.73200
O3892       O  0.65600424  0.95640032  0.74482792    -0.74200
O3893       O  0.64735742  0.50687885  0.70461886    -0.62800
O3894       O  0.64737797  0.99488822  0.79740375    -0.71200
O3895       O  0.59579318  0.99419547  0.79576123    -0.70800
O3896       O  0.59576521  0.50637897  0.70645437    -0.62000
O3897       O  0.60442976  0.95404691  0.74508572    -0.74500
O3898       O  0.60333936  0.54685329  0.75703710    -0.73300
Cu3899     Cu  0.65353855  0.50099455  0.75098506     1.04600
Cu3900     Cu  0.59770743  0.50035133  0.75110209     1.04300
C3901       C  0.63001884  0.56077684  0.75799224     0.93000
C3902       C  0.63143131  0.94076824  0.74391454     0.92100
C3903       C  0.62054189  0.50755162  0.69104965     0.84300
C3904       C  0.62052732  0.99346892  0.81106439     0.90600
C3905       C  0.60668225  0.97206787  0.89613447     0.02900
C3906       C  0.59827983  0.97676158  0.86446124    -0.13300
C3907       C  0.61868944  0.99405376  0.84498861     0.00400
C3908       C  0.64254025  0.51007533  0.85820820    -0.11800
C3909       C  0.65631025  0.99640608  0.88315730     0.02900
C3910       C  0.63779712  0.97923887  0.90440538    -0.11200
H3911       H  0.57718644  0.96674734  0.85524478     0.08500
H3912       H  0.65574803  0.52654476  0.84422522     0.06000
H3913       H  0.64744476  0.97092929  0.92606393     0.05800
O3914       O  0.50525566  0.64861883  0.70282178    -0.73200
O3915       O  0.99426323  0.64986550  0.79554137    -0.74200
O3916       O  0.54470303  0.65701573  0.75448198    -0.62800
O3917       O  0.95508144  0.65746018  0.74360149    -0.71200
O3918       O  0.95310960  0.60586735  0.74405311    -0.70800
O3919       O  0.54582073  0.60542038  0.75537550    -0.62000
O3920       O  0.99339968  0.59824224  0.79425189    -0.74500
O3921       O  0.50533835  0.59703276  0.70538826    -0.73300
Cu3922     Cu  0.49984956  0.65540303  0.74908382     1.04600
Cu3923     Cu  0.49941401  0.59955536  0.74979055     1.04300
C3924       C  0.50619828  0.62155147  0.68970067     0.93000
C3925       C  0.99279205  0.62315115  0.80933028     0.92100
C3926       C  0.55978625  0.63208894  0.75583560     0.84300
C3927       C  0.93961522  0.63274679  0.74290372     0.90600
C3928       C  0.97036581  0.60915977  0.89378550     0.02900
C3929       C  0.97733259  0.64024845  0.90253227    -0.13300
C3930       C  0.99469115  0.65903800  0.88164855     0.00400
C3931       C  0.00859807  0.64557546  0.85654726    -0.11800
C3932       C  0.99303739  0.62153582  0.84313117     0.02900
C3933       C  0.97562217  0.60095611  0.86218900    -0.11200
H3934       H  0.96873851  0.64966240  0.92425217     0.08500
H3935       H  0.52507791  0.65896235  0.84273748     0.06000
H3936       H  0.96585743  0.57983842  0.85267544     0.05800
C3937       C  0.64469966  0.64632126  0.77742750     0.02900
C3938       C  0.65261772  0.61442574  0.77312820    -0.13300
C3939       C  0.63142909  0.59473907  0.75723570     0.00400
C3940       C  0.60688086  0.60775069  0.74215829    -0.11800
C3941       C  0.59379115  0.63329532  0.75557474     0.02900
C3942       C  0.61324048  0.65475913  0.77141966    -0.11200
H3943       H  0.67397341  0.60517181  0.78257016     0.08500
H3944       H  0.59313202  0.59358112  0.72640960     0.06000
H3945       H  0.60405717  0.67667647  0.77970410     0.05800
C3946       C  0.53014392  0.60631621  0.60625987     0.02900
C3947       C  0.52471562  0.63780814  0.59758367    -0.13300
C3948       C  0.50705755  0.65694527  0.61796676     0.00400
C3949       C  0.49131224  0.64343084  0.64194927    -0.11800
C3950       C  0.50589805  0.61912540  0.65596807     0.02900
C3951       C  0.52345660  0.59813058  0.63755935    -0.11200
H3952       H  0.53452085  0.64716350  0.57637125     0.08500
H3953       H  0.97461021  0.65712704  0.65518700     0.06000
H3954       H  0.53238618  0.57678393  0.64738990     0.05800
C3955       C  0.60595622  0.52843208  0.60611985     0.02900
C3956       C  0.59768488  0.52314641  0.63778944    -0.13300
C3957       C  0.61888004  0.50688823  0.65712913     0.00400
C3958       C  0.64367521  0.49231105  0.64380938    -0.11800
C3959       C  0.65698152  0.50692914  0.61903087     0.02900
C3960       C  0.63763064  0.52318953  0.59784895    -0.11200
H3961       H  0.57613851  0.53220624  0.64716230     0.08500
H3962       H  0.65750416  0.97631421  0.65762593     0.06000
H3963       H  0.64699680  0.53227921  0.57631233     0.05800
C3964       C  0.60608328  0.60629752  0.53028821     0.02900
C3965       C  0.59740454  0.63778478  0.52483335    -0.13300
C3966       C  0.61778423  0.65690659  0.50715839     0.00400
C3967       C  0.64176449  0.64337623  0.49142136    -0.11800
C3968       C  0.65578602  0.61908551  0.50603137     0.02900
C3969       C  0.63738162  0.59810689  0.52360898    -0.11200
H3970       H  0.57619397  0.64714944  0.53463365     0.08500
H3971       H  0.65500160  0.65705937  0.97471008     0.06000
H3972       H  0.64721437  0.57676953  0.53255786     0.05800
C3973       C  0.70852142  0.70997630  0.79158043     0.86200
C3974       C  0.68593173  0.72748795  0.81379626    -0.54000
C3975       C  0.66721211  0.70895268  0.83202351     0.09200
C3976       C  0.67233224  0.67392191  0.82622134     0.20100
C3977       C  0.72593421  0.68732213  0.81360524    -0.54700
C3978       C  0.70734198  0.66868235  0.83181985     0.09300
C3979       C  0.68663502  0.68821867  0.77281062    -0.54300
C3980       C  0.66764627  0.66930472  0.79081524     0.09800
H3981       H  0.68524483  0.75266277  0.81530596     0.14400
H3982       H  0.65721571  0.65883905  0.84077211     0.00100
H3983       H  0.75110573  0.68653966  0.81501259     0.14700
H3984       H  0.68615889  0.68772444  0.74762182     0.14400
C3985       C  0.79146721  0.70998229  0.70864497     0.86200
C3986       C  0.77270770  0.68822562  0.68675136    -0.54000
C3987       C  0.79071735  0.66931250  0.66776431     0.09200
C3988       C  0.82612027  0.67392838  0.67246114     0.20100
C3989       C  0.81348770  0.68733011  0.72606456    -0.54700
C3990       C  0.83171005  0.66869116  0.70747628     0.09300
C3991       C  0.81368408  0.72749455  0.68606125    -0.54300
C3992       C  0.83191823  0.70895964  0.66734495     0.09800
H3993       H  0.74752122  0.68773017  0.68626994     0.14400
H3994       H  0.84067541  0.65884509  0.65734611     0.00100
H3995       H  0.81488650  0.68654845  0.75123870     0.14700
H3996       H  0.81518915  0.75266950  0.68537573     0.14400
C3997       C  0.79427826  0.79558796  0.79440468     0.86200
C3998       C  0.81636044  0.77766092  0.81648297    -0.54000
C3999       C  0.83485979  0.79600685  0.83498207     0.09200
C4000       C  0.82969894  0.83118218  0.82982633     0.20100
C4001       C  0.77624064  0.81772885  0.81653611    -0.54700
C4002       C  0.79450138  0.83632667  0.83504407     0.09300
C4003       C  0.81640378  0.81773019  0.77636423    -0.54300
C4004       C  0.83491186  0.83632783  0.79462617     0.09800
H4005       H  0.81723316  0.75246842  0.81735494     0.14400
H4006       H  0.84455867  0.84609551  0.84468785     0.00100
H4007       H  0.75104664  0.81855578  0.81744279     0.14700
H4008       H  0.81730690  0.81855727  0.75116803     0.14400
C4009       C  0.70894386  0.79259111  0.70906919     0.86200
C4010       C  0.68716156  0.77383042  0.68727629    -0.54000
C4011       C  0.66830797  0.79185005  0.66842803     0.09200
C4012       C  0.67299115  0.82724670  0.67312850     0.20100
C4013       C  0.72651264  0.81470308  0.68648436    -0.54700
C4014       C  0.70802705  0.83292902  0.66789628     0.09300
C4015       C  0.68635200  0.81469043  0.72664877    -0.54300
C4016       C  0.66775774  0.83291667  0.70817022     0.09800
H4017       H  0.68662061  0.74864345  0.68672731     0.14400
H4018       H  0.65794685  0.84179431  0.65808946     0.00100
H4019       H  0.75169061  0.81614023  0.68569227     0.14700
H4020       H  0.68556106  0.81612047  0.75182945     0.14400
C4021       C  0.77262856  0.77379242  0.77275622     0.86200
C4022       C  0.75079691  0.79187677  0.75092420    -0.54000
C4023       C  0.73177345  0.77459485  0.73189592     0.09200
C4024       C  0.73713983  0.73827939  0.73725811     0.20100
C4025       C  0.75066335  0.75188496  0.79086390    -0.54700
C4026       C  0.73159333  0.73284987  0.77358793     0.09300
C4027       C  0.79073811  0.75188769  0.75078884    -0.54300
C4028       C  0.77346804  0.73285307  0.73171488     0.09800
H4029       H  0.75049238  0.81710239  0.75062351     0.14400
H4030       H  0.72231033  0.72346527  0.72242320     0.00100
H4031       H  0.75027858  0.75157466  0.81608865     0.14700
H4032       H  0.81596099  0.75157826  0.75040578     0.14400
loop_ 
_geom_bond_atom_site_label_1 
_geom_bond_atom_site_label_2 
_geom_bond_distance 
_geom_bond_site_symmetry_2 
_ccdc_geom_bond_type 
C1            C2   1.555       .  S
C1            C7   1.555       .  S
C1            C5   1.555       .  S
C1           C51   1.593       .  S
C2            H9   1.086   1_455  S
C2            C3   1.376       .  D
C3            C4   1.544       .  S
C3          C418   1.505       .  S
C4            C8   1.550       .  S
C4            C6   1.544       .  S
C4           H10   1.111       .  S
C5           H11   1.086   1_554  S
C5            C6   1.376       .  D
C6          C436   1.505       .  S
C7           H12   1.085   1_545  S
C7            C8   1.387       .  D
C8          C427   1.511       .  S
C13          C14   1.553       .  S
C13          C19   1.552       .  S
C13          C17   1.553       .  S
C13          C49   1.620       .  S
C14          H21   1.086       .  S
C14          C15   1.378       .  D
C15          C16   1.547       .  S
C15         C400   1.505       .  S
C16          C20   1.546       .  S
C16          C18   1.547       .  S
C16          H22   1.111       .  S
C17          H23   1.086       .  S
C17          C18   1.378       .  D
C18         C322   1.505       .  S
C19          H24   1.086       .  S
C19          C20   1.377       .  D
C20         C235   1.504       .  S
C25          C26   1.557       .  S
C25          C31   1.556       .  S
C25          C29   1.555       .  S
C25          C56   1.597       .  S
C26        H2049   1.085       .  S
C26          C27   1.388       .  D
C27          C28   1.551       .  S
C27         C290   1.514       .  S
C28          C32   1.544       .  S
C28          C30   1.544       .  S
C28          H34   1.111       .  S
C29          H35   1.086       .  S
C29          C30   1.376       .  D
C30         C125   1.506       .  S
C31        H1044   1.086       .  S
C31          C32   1.377       .  D
C32         C345   1.507       .  S
H33        C2042   1.085   1_455  S
H36        C1039   1.086   1_545  S
C37          C38   1.556       .  S
C37          C43   1.557       .  S
C37          C41   1.555       .  S
C37          C54   1.597       .  S
C38        H1053   1.086       .  S
C38          C39   1.377       .  D
C39          C40   1.544       .  S
C39         C377   1.507       .  S
C40          C44   1.551       .  S
C40          C42   1.544       .  S
C40          H46   1.111       .  S
C41          H47   1.086       .  S
C41          C42   1.376       .  D
C42         C180   1.506       .  S
C43         H552   1.085       .  S
C43          C44   1.388       .  D
C44         C267   1.514       .  S
H45        C1046   1.086   1_545  S
H48         C547   1.085   1_554  S
C49        C2570   1.542       .  S
C49         C559   1.544       .  S
C49        C2069   1.544       .  S
C50        C2569   1.542   1_454  S
C50          H57   1.086       .  S
C50          C51   1.379       .  D
C51        C1060   1.597   1_545  S
C52        C1059   1.597       .  S
C52        C2072   1.598   1_455  S
C52         C558   1.598   1_554  S
C52          H58   1.107       .  S
C53        C2065   1.544   1_455  S
C53          H59   1.086       .  S
C53        C1062   1.380   1_545  D
C54         C556   1.598       .  S
C54        C1061   1.380       .  D
C55         C553   1.544   1_554  S
C55          H60   1.086       .  S
C55        C1064   1.380   1_545  D
C56        C2068   1.598       .  S
C56        C1063   1.380       .  D
C61         C476   1.505       .  S
C61          C62   1.422       .  A
C61          C66   1.422       .  A
C62          C63   1.420       .  A
C62          H67   1.083       .  S
C63          C64   1.362       .  A
C63         C218   1.458       .  S
C64          C65   1.362       .  A
C64          H68   1.089       .  S
C65          C66   1.419       .  A
C65         C162   1.457       .  S
C66          H69   1.083       .  S
C70         C474   1.505       .  S
C70          C71   1.422       .  A
C70          C75   1.422       .  A
C71          C72   1.419       .  A
C71          H76   1.083       .  S
C72          C73   1.362       .  A
C72         C110   1.457       .  S
C73          C74   1.362       .  A
C73          H77   1.089       .  S
C74          C75   1.420       .  A
C74         C231   1.458       .  S
C75          H78   1.083       .  S
C79         C486   1.505       .  S
C79          C80   1.426       .  A
C79          C84   1.421       .  A
C80          C81   1.421       .  A
C80          H85   1.082       .  S
C81          C82   1.363       .  A
C81         C342   1.461       .  S
C82          C83   1.362       .  A
C82          H86   1.089       .  S
C83          C84   1.418       .  A
C83         C109   1.456       .  S
C84          H87   1.083       .  S
C88         C464   1.507       .  S
C88          C89   1.426       .  A
C88          C93   1.421       .  A
C89          C90   1.422       .  A
C89          H94   1.082       .  S
C90          C91   1.363       .  A
C90         C289   1.462       .  S
C91          C92   1.363       .  A
C91          H95   1.089       .  S
C92          C93   1.418       .  A
C92         C124   1.457       .  S
C93          H96   1.083       .  S
O97         C107   1.296       .  A
O97        Cu609   2.029       .  S
O98         C108   1.296       .  A
O98        Cu105   2.028       .  S
O99         C109   1.253       .  A
O99        Cu105   1.930       .  S
O100        C110   1.253       .  A
O100       Cu609   1.931       .  S
O101        C110   1.295       .  A
O101       Cu610   2.027       .  S
O102        C109   1.295       .  A
O102       Cu106   2.025       .  S
O103        C108   1.255       .  A
O103       Cu106   1.944       .  S
O104        C107   1.256       .  A
O104       Cu610   1.947       .  S
Cu105       O601   2.029   1_554  S
Cu105       O604   1.931   1_554  S
Cu105      Cu106   2.404       .  S
Cu106       O605   2.027   1_554  S
Cu106       O608   1.947   1_554  S
C107        C269   1.465       .  S
C108        C129   1.462       .  S
O111        C121   1.254       .  A
O111       Cu119   1.934       .  S
O112        C122   1.254       .  A
O112       Cu623   1.935       .  S
O113        C123   1.295       .  A
O113       Cu623   2.023       .  S
O114        C124   1.295       .  A
O114       Cu119   2.022       .  S
O115        C124   1.254       .  A
O115       Cu120   1.935       .  S
O116        C123   1.254       .  A
O116       Cu624   1.934       .  S
O117        C122   1.295       .  A
O117       Cu624   2.023       .  S
O118        C121   1.295       .  A
O118       Cu120   2.022       .  S
Cu119       O616   1.935   1_554  S
Cu119       O617   2.023   1_554  S
Cu119      Cu120   2.405       .  S
Cu120       O620   1.934   1_554  S
Cu120       O621   2.023   1_554  S
C121        C127   1.456       .  S
C122        C324   1.458       .  S
C123        C138   1.457       .  S
C125        C126   1.421       .  A
C125        C130   1.426       .  A
C126        C127   1.418       .  A
C126        H131   1.083       .  S
C127        C128   1.363   1_554  A
C128        C129   1.364   1_556  A
C128        H636   1.089       .  S
C129        C130   1.421       .  A
C130        H133   1.082       .  S
H132        C632   1.089       .  S
C134        C471   1.504       .  S
C134        C135   1.422       .  A
C134        C139   1.422       .  A
C135        C136   1.419       .  A
C135        H140   1.083       .  S
C136        C137   1.363       .  A
C136        C176   1.457       .  S
C137        C138   1.363       .  A
C137        H141   1.089       .  S
C138        C139   1.419       .  A
C139        H142   1.083       .  S
C143        C488   1.505       .  S
C143        C144   1.426       .  A
C143        C148   1.421       .  A
C144        C145   1.421       .  A
C144        H149   1.082       .  S
C145        C146   1.363       .  A
C145        C374   1.461       .  S
C146        C147   1.362       .  A
C146        H150   1.089       .  S
C147        C148   1.418       .  A
C147        C163   1.456       .  S
C148        H151   1.083       .  S
O152        C162   1.254       .  A
O152      Cu2176   1.931       .  S
O153        C163   1.253       .  A
O153       Cu160   1.930       .  S
O154        C164   1.296       .  A
O154       Cu160   2.028       .  S
O155        C165   1.296       .  A
O155      Cu2176   2.029       .  S
O156        C165   1.256       .  A
O156      Cu2177   1.947       .  S
O157        C164   1.255       .  A
O157       Cu161   1.944       .  S
O158        C163   1.295       .  A
O158       Cu161   2.025       .  S
O159        C162   1.295       .  A
O159      Cu2177   2.027       .  S
Cu160      O2168   1.931   1_455  S
Cu160      O2171   2.029   1_455  S
Cu160      Cu161   2.404       .  S
Cu161      O2172   1.947   1_455  S
Cu161      O2175   2.027   1_455  S
C164        C182   1.462       .  S
C165        C294   1.465       .  S
O166        C176   1.254       .  A
O166      Cu2190   1.934       .  S
O167        C177   1.254       .  A
O167       Cu174   1.935       .  S
O168        C178   1.295       .  A
O168      Cu2190   2.023       .  S
O169        C179   1.295       .  A
O169       Cu174   2.022       .  S
O170        C179   1.254       .  A
O170       Cu175   1.934       .  S
O171        C178   1.254       .  A
O171      Cu2191   1.935       .  S
O172        C177   1.295       .  A
O172       Cu175   2.022       .  S
O173        C176   1.295       .  A
O173      Cu2191   2.023       .  S
Cu174      O2182   1.934   1_455  S
Cu174      O2184   2.023   1_455  S
Cu174      Cu175   2.405       .  S
Cu175      O2187   1.935   1_455  S
Cu175      O2189   2.023   1_455  S
C177        C191   1.457       .  S
C178        C402   1.458       .  S
C179        C184   1.456       .  S
C180        C181   1.426       .  A
C180        C185   1.421       .  A
C181        C182   1.421       .  A
C181        H186   1.082       .  S
C182        C183   1.363   1_455  A
C183        C184   1.363   1_655  A
C183       H2203   1.089       .  S
C184        C185   1.418       .  A
C185        H188   1.083       .  S
H187       C2199   1.089       .  S
C189        C447   1.507       .  S
C189        C190   1.421       .  A
C189        C194   1.426       .  A
C190        C191   1.418       .  A
C190        H195   1.083       .  S
C191        C192   1.362       .  A
C192        C193   1.363       .  A
C192        H196   1.089       .  S
C193        C194   1.422       .  A
C193        C263   1.462       .  S
C194        H197   1.082       .  S
C198        C462   1.506       .  S
C198        C199   1.426       .  A
C198        C203   1.421       .  A
C199        C200   1.421       .  A
C199        H204   1.082       .  S
C200        C201   1.364       .  A
C200        C399   1.462       .  S
C201        C202   1.363       .  A
C201        H205   1.089       .  S
C202        C203   1.418       .  A
C202        C217   1.456       .  S
C203        H206   1.083       .  S
O207        C217   1.295       .  A
O207       Cu215   2.022       .  S
O208        C218   1.295       .  A
O208      Cu1223   2.023       .  S
O209        C219   1.254       .  A
O209      Cu1223   1.935       .  S
O210        C220   1.254       .  A
O210       Cu215   1.934       .  S
O211        C220   1.295       .  A
O211       Cu216   2.023       .  S
O212        C219   1.295       .  A
O212      Cu1224   2.022       .  S
O213        C218   1.254       .  A
O213      Cu1224   1.935       .  S
O214        C217   1.254       .  A
O214       Cu216   1.934       .  S
Cu215      O1216   2.023   1_545  S
Cu215      O1217   1.935   1_545  S
Cu215      Cu216   2.405       .  S
Cu216      O1220   2.022   1_545  S
Cu216      O1221   1.935   1_545  S
C219        C347   1.457       .  S
C220        C237   1.457       .  S
O221        C231   1.254       .  A
O221      Cu1237   1.935       .  S
O222        C232   1.254       .  A
O222       Cu229   1.934       .  S
O223        C233   1.295       .  A
O223       Cu229   2.023       .  S
O224        C234   1.295       .  A
O224      Cu1237   2.022       .  S
O225        C234   1.254       .  A
O225      Cu1238   1.935       .  S
O226        C233   1.254       .  A
O226       Cu230   1.934       .  S
O227        C232   1.295       .  A
O227       Cu230   2.022       .  S
O228        C231   1.295       .  A
O228      Cu1238   2.023       .  S
Cu229      O1229   1.935   1_545  S
Cu229      O1232   2.022   1_545  S
Cu229      Cu230   2.405       .  S
Cu230      O1233   1.935   1_545  S
Cu230      O1236   2.023   1_545  S
C232        C248   1.456       .  S
C233        C239   1.457       .  S
C234        C381   1.457       .  S
C235        C236   1.422       .  A
C235        C240   1.422       .  A
C236        C237   1.419       .  A
C236        H241   1.083       .  S
C237        C238   1.363   1_545  A
C238        C239   1.363   1_565  A
C238       H1250   1.089       .  S
C239        C240   1.419       .  A
C240        H243   1.083       .  S
H242       C1246   1.089       .  S
C244        C450   1.506       .  S
C244        C245   1.426       .  A
C244        C249   1.421       .  A
C245        C246   1.421       .  A
C245        H250   1.082       .  S
C246        C247   1.363       .  A
C246        C320   1.462       .  S
C247        C248   1.363       .  A
C247        H251   1.089       .  S
C248        C249   1.418       .  A
C249        H252   1.083       .  S
O253        C263   1.296       .  A
O253       Cu765   2.032       .  S
O254        C264   1.296       .  A
O254       Cu261   2.030       .  S
O255        C265   1.255       .  A
O255       Cu765   1.942       .  S
O256        C266   1.254       .  A
O256       Cu261   1.941       .  S
O257        C266   1.296       .  A
O257       Cu262   2.030       .  S
O258        C265   1.296       .  A
O258       Cu766   2.032       .  S
O259        C264   1.255       .  A
O259       Cu262   1.941       .  S
O260        C263   1.255       .  A
O260       Cu766   1.942       .  S
Cu261       O757   2.032   1_554  S
Cu261       O759   1.942   1_554  S
Cu261      Cu262   2.404       .  S
Cu262       O762   2.032   1_554  S
Cu262       O764   1.942   1_554  S
C264        C301   1.462       .  S
C265        C271   1.463       .  S
C266        C438   1.461       .  S
C267        C268   1.427       .  A
C267        C272   1.426       .  A
C268        C269   1.423       .  A
C268        H273   1.083       .  S
C269        C270   1.363       .  A
C270        C271   1.363       .  A
C270        H778   1.089       .  S
C271        C272   1.422       .  A
C272        H275   1.083       .  S
H274        C774   1.089       .  S
O276        C286   1.254       .  A
O276       Cu284   1.941       .  S
O277        C287   1.255       .  A
O277      Cu2300   1.942       .  S
O278        C288   1.296       .  A
O278       Cu284   2.030       .  S
O279        C289   1.296       .  A
O279      Cu2300   2.032       .  S
O280        C289   1.255       .  A
O280      Cu2301   1.942       .  S
O281        C288   1.255       .  A
O281       Cu285   1.941       .  S
O282        C287   1.296       .  A
O282      Cu2301   2.032       .  S
O283        C286   1.296       .  A
O283       Cu285   2.030       .  S
Cu284      O2293   1.942   1_455  S
Cu284      O2295   2.032   1_455  S
Cu284      Cu285   2.404       .  S
Cu285      O2296   1.942   1_455  S
Cu285      O2298   2.032   1_455  S
C286        C420   1.461       .  S
C287        C292   1.463       .  S
C288        C303   1.462       .  S
C290        C291   1.426       .  A
C290        C295   1.427       .  A
C291        C292   1.422       .  A
C291        H296   1.083       .  S
C292        C293   1.363       .  A
C293        C294   1.363       .  A
C293       H2313   1.089       .  S
C294        C295   1.423       .  A
C295        H298   1.083       .  S
H297       C2309   1.089       .  S
C299        C483   1.511       .  S
C299        C300   1.426       .  A
C299        C304   1.426       .  A
C300        C301   1.422       .  A
C300        H305   1.083       .  S
C301        C302   1.363       .  A
C302        C303   1.363       .  A
C302        H306   1.089       .  S
C303        C304   1.422       .  A
C304        H307   1.083       .  S
O308        C318   1.254       .  A
O308       Cu820   1.931       .  S
O309        C319   1.253       .  A
O309       Cu316   1.930   1_554  S
O310        C320   1.296       .  A
O310       Cu820   2.028       .  S
O311        C321   1.296       .  A
O311       Cu316   2.029   1_554  S
O312        C321   1.256       .  A
O312       Cu317   1.947   1_554  S
O313        C320   1.255       .  A
O313       Cu821   1.944       .  S
O314        C319   1.295       .  A
O314       Cu317   2.025   1_554  S
O315        C318   1.295       .  A
O315       Cu821   2.027       .  S
Cu316       O812   1.931       .  S
Cu316       O814   2.028       .  S
Cu316      Cu317   2.404       .  S
Cu317       O817   1.944       .  S
Cu317       O819   2.027       .  S
C318        C326   1.457       .  S
C319        C440   1.456       .  S
C321        C358   1.465       .  S
C322        C323   1.422       .  A
C322        C327   1.422       .  A
C323        C324   1.420       .  A
C323        H328   1.083       .  S
C324        C325   1.362       .  A
C325        C326   1.362       .  A
C325        H833   1.089       .  S
C326        C327   1.419       .  A
C327        H330   1.083       .  S
H329        C829   1.089       .  S
O331        C341   1.255       .  A
O331       Cu339   1.942       .  S
O332        C342   1.254       .  A
O332      Cu1347   1.941       .  S
O333        C343   1.296       .  A
O333      Cu1347   2.032       .  S
O334        C344   1.296       .  A
O334       Cu339   2.030       .  S
O335        C344   1.255       .  A
O335       Cu340   1.941       .  S
O336        C343   1.255       .  A
O336      Cu1348   1.942       .  S
O337        C342   1.296       .  A
O337      Cu1348   2.030       .  S
O338        C341   1.296       .  A
O338       Cu340   2.032       .  S
Cu339      O1340   1.941   1_545  S
Cu339      O1341   2.032   1_545  S
Cu339      Cu340   2.404       .  S
Cu340      O1344   1.942   1_545  S
Cu340      O1345   2.030   1_545  S
C341        C356   1.463       .  S
C343        C349   1.462       .  S
C344        C431   1.462       .  S
C345        C346   1.421       .  A
C345        C350   1.426       .  A
C346        C347   1.418       .  A
C346        H351   1.083       .  S
C347       C1356   1.362       .  A
C348       C1355   1.362   1_545  A
C348       C1357   1.363   1_545  A
C348        H352   1.089       .  S
C349        C350   1.422       .  A
C349       C1356   1.363       .  A
C350        H353   1.082       .  S
C354        C459   1.514       .  S
C354        C355   1.426       .  A
C354        C359   1.427       .  A
C355        C356   1.422       .  A
C355        H360   1.083       .  S
C356        C357   1.363       .  A
C357        C358   1.363       .  A
C357        H361   1.089       .  S
C358        C359   1.423       .  A
C359        H362   1.083       .  S
O363        C373   1.255       .  A
O363       Cu371   1.942       .  S
O364        C374   1.254       .  A
O364      Cu1379   1.941       .  S
O365        C375   1.296       .  A
O365       Cu371   2.030       .  S
O366        C376   1.296       .  A
O366      Cu1379   2.032       .  S
O367        C376   1.255       .  A
O367      Cu1380   1.942       .  S
O368        C375   1.255       .  A
O368       Cu372   1.941       .  S
O369        C374   1.296       .  A
O369      Cu1380   2.030       .  S
O370        C373   1.296       .  A
O370       Cu372   2.033       .  S
Cu371      O1372   1.941   1_545  S
Cu371      O1374   2.032   1_545  S
Cu371      Cu372   2.404       .  S
Cu372      O1375   1.942   1_545  S
Cu372      O1377   2.030   1_545  S
C373        C411   1.463       .  S
C375        C429   1.462       .  S
C376        C379   1.462       .  S
C377        C378   1.426       .  A
C377        C382   1.421       .  A
C378        C379   1.422       .  A
C378        H383   1.082       .  S
C379       C1388   1.363       .  A
C380       C1387   1.363   1_545  A
C380       C1389   1.362   1_545  A
C380        H384   1.089       .  S
C381        C382   1.418       .  A
C381       C1388   1.362       .  A
C382        H385   1.083       .  S
O386        C396   1.295       .  A
O386       Cu394   2.025   1_455  S
O387        C397   1.295       .  A
O387      Cu2410   2.027       .  S
O388        C398   1.256       .  A
O388       Cu394   1.947   1_455  S
O389        C399   1.255       .  A
O389      Cu2410   1.945       .  S
O390        C399   1.296       .  A
O390      Cu2411   2.028       .  S
O391        C398   1.296       .  A
O391       Cu395   2.029   1_455  S
O392        C397   1.254       .  A
O392      Cu2411   1.931       .  S
O393        C396   1.253       .  A
O393       Cu395   1.930   1_455  S
Cu394      O2403   2.027       .  S
Cu394      O2405   1.945       .  S
Cu394      Cu395   2.404       .  S
Cu395      O2406   2.028       .  S
Cu395      O2408   1.931       .  S
C396        C422   1.456       .  S
C397        C404   1.457       .  S
C398        C413   1.465       .  S
C400        C401   1.422       .  A
C400        C405   1.422       .  A
C401        C402   1.420       .  A
C401        H406   1.083       .  S
C402        C403   1.362       .  A
C403        C404   1.362       .  A
C403       H2423   1.089       .  S
C404        C405   1.419       .  A
C405        H408   1.083       .  S
H407       C2419   1.089       .  S
C409        C452   1.514       .  S
C409        C410   1.426       .  A
C409        C414   1.427       .  A
C410        C411   1.422       .  A
C410        H415   1.083       .  S
C411        C412   1.363       .  A
C412        C413   1.363       .  A
C412        H416   1.089       .  S
C413        C414   1.423       .  A
C414        H417   1.083       .  S
C418        C419   1.426       .  A
C418        C423   1.421       .  A
C419        C420   1.421       .  A
C419        H424   1.082       .  S
C420        C421   1.363   1_455  A
C421        C422   1.362   1_655  A
C421       H2441   1.089       .  S
C422        C423   1.418       .  A
C423        H426   1.083       .  S
H425       C2437   1.089       .  S
C427        C428   1.426       .  A
C427        C432   1.426       .  A
C428        C429   1.422       .  A
C428        H433   1.083       .  S
C429        C430   1.363   1_545  A
C430        C431   1.363   1_565  A
C430       H1442   1.089       .  S
C431        C432   1.422       .  A
C432        H435   1.083       .  S
H434       C1438   1.089       .  S
C436        C437   1.426       .  A
C436        C441   1.421       .  A
C437        C438   1.421       .  A
C437        H442   1.082       .  S
C438        C439   1.363   1_554  A
C439        C440   1.362   1_556  A
C439        H947   1.089       .  S
C440        C441   1.418       .  A
C441        H444   1.083       .  S
H443        C943   1.089       .  S
C445        C446   1.556       .  S
C445        C451   1.557       .  S
C445        C449   1.555       .  S
C445        C498   1.597       .  S
C446        H453   1.086       .  S
C446        C447   1.377       .  D
C447        C448   1.544       .  S
C448        C452   1.551       .  S
C448        C450   1.544       .  S
C448        H454   1.111       .  S
C449        H455   1.086       .  S
C449        C450   1.376       .  D
C451        H456   1.085       .  S
C451        C452   1.388       .  D
C457        C458   1.557       .  S
C457        C463   1.556       .  S
C457        C461   1.555       .  S
C457        C500   1.597       .  S
C458        H465   1.085       .  S
C458        C459   1.388       .  D
C459        C460   1.551       .  S
C460        C464   1.544       .  S
C460        C462   1.544       .  S
C460        H466   1.111       .  S
C461        H467   1.086       .  S
C461        C462   1.376       .  D
C463        H468   1.086       .  S
C463        C464   1.377       .  D
C469        C470   1.552       .  S
C469        C475   1.553       .  S
C469        C473   1.553       .  S
C469        C493   1.620       .  S
C470        H477   1.086       .  S
C470        C471   1.377       .  D
C471        C472   1.546       .  S
C472        C476   1.547       .  S
C472        C474   1.547       .  S
C472        H478   1.111       .  S
C473        H479   1.086       .  S
C473        C474   1.378       .  D
C475        H480   1.086       .  S
C475        C476   1.378       .  D
C481        C482   1.555       .  S
C481        C487   1.555       .  S
C481        C485   1.555       .  S
C481        C495   1.593       .  S
C482        H489   1.085       .  S
C482        C483   1.387       .  D
C483        C484   1.550       .  S
C484        C488   1.544       .  S
C484        C486   1.544       .  S
C484        H490   1.111       .  S
C485        H491   1.086       .  S
C485        C486   1.376       .  D
C487        H492   1.086       .  S
C487        C488   1.376       .  D
C493        C494   1.543       .  S
C493        C499   1.544       .  S
C493        C497   1.544       .  S
C494        H501   1.086       .  S
C494        C495   1.379       .  D
C495        C496   1.597       .  S
C496        C500   1.598       .  S
C496        C498   1.598       .  S
C496        H502   1.107       .  S
C497        H503   1.086       .  S
C497        C498   1.380       .  D
C499        H504   1.086       .  S
C499        C500   1.380       .  D
C505        C506   1.555       .  S
C505        C511   1.555       .  S
C505        C509   1.555       .  S
C505        C555   1.593       .  S
C506        H513   1.086   1_455  S
C506        C507   1.376       .  D
C507        C508   1.544       .  S
C507        C922   1.505       .  S
C508        C512   1.550       .  S
C508        C510   1.544       .  S
C508        H514   1.111       .  S
C509        H515   1.086       .  S
C509        C510   1.376       .  D
C510        C940   1.505       .  S
C511        H516   1.085   1_545  S
C511        C512   1.387       .  D
C512        C931   1.511       .  S
C517        C518   1.553       .  S
C517        C523   1.552       .  S
C517        C521   1.553       .  S
C517        C553   1.620       .  S
C518        H525   1.086       .  S
C518        C519   1.378       .  D
C519        C520   1.547       .  S
C519        C904   1.505       .  S
C520        C524   1.546       .  S
C520        C522   1.547       .  S
C520        H526   1.111       .  S
C521        H527   1.086   1_556  S
C521        C522   1.378       .  D
C522        C826   1.505       .  S
C523        H528   1.086       .  S
C523        C524   1.377       .  D
C524        C739   1.504       .  S
C529        C530   1.557       .  S
C529        C535   1.556       .  S
C529        C533   1.555       .  S
C529        C560   1.597       .  S
C530       H2553   1.085       .  S
C530        C531   1.388       .  D
C531        C532   1.551       .  S
C531        C794   1.514       .  S
C532        C536   1.544       .  S
C532        C534   1.544       .  S
C532        H538   1.111       .  S
C533        H539   1.086       .  S
C533        C534   1.376       .  D
C534        C629   1.506       .  S
C535       H1548   1.086       .  S
C535        C536   1.377       .  D
C536        C849   1.507       .  S
H537       C2546   1.085   1_455  S
H540       C1543   1.086   1_545  S
C541        C542   1.556       .  S
C541        C547   1.557       .  S
C541        C545   1.555       .  S
C541        C558   1.597       .  S
C542       H1557   1.086       .  S
C542        C543   1.377       .  D
C543        C544   1.544       .  S
C543        C881   1.507       .  S
C544        C548   1.551       .  S
C544        C546   1.544       .  S
C544        H550   1.111       .  S
C545        H551   1.086       .  S
C545        C546   1.376       .  D
C546        C684   1.506       .  S
C547        C548   1.388       .  D
C548        C771   1.514       .  S
H549       C1550   1.086   1_545  S
C553       C2066   1.542   1_556  S
C553       C2573   1.544       .  S
C554       C2065   1.542   1_455  S
C554        H561   1.086       .  S
C554        C555   1.379       .  D
C555       C1564   1.597   1_545  S
C556       C1563   1.597       .  S
C556       C2576   1.598   1_455  S
C556        H562   1.107       .  S
C557       C2569   1.544   1_455  S
C557        H563   1.086       .  S
C557       C1566   1.380   1_545  D
C558       C1565   1.380       .  D
C559        H564   1.086       .  S
C559       C1568   1.380   1_545  D
C560       C2572   1.598       .  S
C560       C1567   1.380       .  D
C565        C980   1.505       .  S
C565        C566   1.422       .  A
C565        C570   1.422       .  A
C566        C567   1.420       .  A
C566        H571   1.083       .  S
C567        C568   1.362       .  A
C567        C722   1.458       .  S
C568        C569   1.362       .  A
C568        H572   1.089       .  S
C569        C570   1.419       .  A
C569        C666   1.457       .  S
C570        H573   1.083       .  S
C574        C978   1.505       .  S
C574        C575   1.422       .  A
C574        C579   1.422       .  A
C575        C576   1.419       .  A
C575        H580   1.083       .  S
C576        C577   1.362       .  A
C576        C614   1.457       .  S
C577        C578   1.362       .  A
C577        H581   1.089       .  S
C578        C579   1.420       .  A
C578        C735   1.458       .  S
C579        H582   1.083       .  S
C583        C990   1.505       .  S
C583        C584   1.426       .  A
C583        C588   1.421       .  A
C584        C585   1.421       .  A
C584        H589   1.082       .  S
C585        C586   1.363       .  A
C585        C846   1.461       .  S
C586        C587   1.362       .  A
C586        H590   1.089       .  S
C587        C588   1.418       .  A
C587        C613   1.456       .  S
C588        H591   1.083       .  S
C592        C968   1.507       .  S
C592        C593   1.426       .  A
C592        C597   1.421       .  A
C593        C594   1.422       .  A
C593        H598   1.082       .  S
C594        C595   1.363       .  A
C594        C793   1.462       .  S
C595        C596   1.363       .  A
C595        H599   1.089       .  S
C596        C597   1.418       .  A
C596        C628   1.457       .  S
C597        H600   1.083       .  S
O601        C611   1.296       .  A
O602        C612   1.296       .  A
O602       Cu609   2.028       .  S
O603        C613   1.253       .  A
O603       Cu609   1.930       .  S
O604        C614   1.253       .  A
O605        C614   1.295       .  A
O606        C613   1.295       .  A
O606       Cu610   2.025       .  S
O607        C612   1.255       .  A
O607       Cu610   1.944       .  S
O608        C611   1.256       .  A
Cu609      Cu610   2.404       .  S
C611        C773   1.465       .  S
C612        C633   1.462       .  S
O615        C625   1.254       .  A
O615       Cu623   1.934       .  S
O616        C626   1.254       .  A
O617        C627   1.295       .  A
O618        C628   1.295       .  A
O618       Cu623   2.022       .  S
O619        C628   1.254       .  A
O619       Cu624   1.935       .  S
O620        C627   1.254       .  A
O621        C626   1.295       .  A
O622        C625   1.295       .  A
O622       Cu624   2.022       .  S
Cu623      Cu624   2.405       .  S
C625        C631   1.456       .  S
C626        C828   1.458       .  S
C627        C642   1.457       .  S
C629        C630   1.421       .  A
C629        C634   1.426       .  A
C630        C631   1.418       .  A
C630        H635   1.083       .  S
C631        C632   1.363       .  A
C632        C633   1.364       .  A
C633        C634   1.421       .  A
C634        H637   1.082       .  S
C638        C975   1.504       .  S
C638        C639   1.422       .  A
C638        C643   1.422       .  A
C639        C640   1.419       .  A
C639        H644   1.083       .  S
C640        C641   1.363       .  A
C640        C680   1.457       .  S
C641        C642   1.363       .  A
C641        H645   1.089       .  S
C642        C643   1.419       .  A
C643        H646   1.083       .  S
C647        C992   1.505       .  S
C647        C648   1.426       .  A
C647        C652   1.421       .  A
C648        C649   1.421       .  A
C648        H653   1.082       .  S
C649        C650   1.363       .  A
C649        C878   1.461       .  S
C650        C651   1.362       .  A
C650        H654   1.089       .  S
C651        C652   1.418       .  A
C651        C667   1.456       .  S
C652        H655   1.083       .  S
O656        C666   1.254       .  A
O656      Cu2680   1.931       .  S
O657        C667   1.253       .  A
O657       Cu664   1.930       .  S
O658        C668   1.296       .  A
O658       Cu664   2.028       .  S
O659        C669   1.296       .  A
O659      Cu2680   2.029       .  S
O660        C669   1.256       .  A
O660      Cu2681   1.947       .  S
O661        C668   1.255       .  A
O661       Cu665   1.944       .  S
O662        C667   1.295       .  A
O662       Cu665   2.025       .  S
O663        C666   1.295       .  A
O663      Cu2681   2.027       .  S
Cu664      O2672   1.931   1_455  S
Cu664      O2675   2.029   1_455  S
Cu664      Cu665   2.404       .  S
Cu665      O2676   1.947   1_455  S
Cu665      O2679   2.027   1_455  S
C668        C686   1.462       .  S
C669        C798   1.465       .  S
O670        C680   1.254       .  A
O670      Cu2694   1.934       .  S
O671        C681   1.254       .  A
O671       Cu678   1.935       .  S
O672        C682   1.295       .  A
O672      Cu2694   2.023       .  S
O673        C683   1.295       .  A
O673       Cu678   2.022       .  S
O674        C683   1.254       .  A
O674       Cu679   1.934       .  S
O675        C682   1.254       .  A
O675      Cu2695   1.935       .  S
O676        C681   1.295       .  A
O676       Cu679   2.022       .  S
O677        C680   1.295       .  A
O677      Cu2695   2.023       .  S
Cu678      O2686   1.934   1_455  S
Cu678      O2688   2.023   1_455  S
Cu678      Cu679   2.405       .  S
Cu679      O2691   1.935   1_455  S
Cu679      O2693   2.023   1_455  S
C681        C695   1.457       .  S
C682        C906   1.458       .  S
C683        C688   1.456       .  S
C684        C685   1.426       .  A
C684        C689   1.421       .  A
C685        C686   1.421       .  A
C685        H690   1.082       .  S
C686        C687   1.363   1_455  A
C687        C688   1.363   1_655  A
C687       H2707   1.089       .  S
C688        C689   1.418       .  A
C689        H692   1.083       .  S
H691       C2703   1.089       .  S
C693        C951   1.507       .  S
C693        C694   1.421       .  A
C693        C698   1.426       .  A
C694        C695   1.418       .  A
C694        H699   1.083       .  S
C695        C696   1.362       .  A
C696        C697   1.363       .  A
C696        H700   1.089       .  S
C697        C698   1.422       .  A
C697        C767   1.462       .  S
C698        H701   1.082       .  S
C702        C966   1.506       .  S
C702        C703   1.426       .  A
C702        C707   1.421       .  A
C703        C704   1.421       .  A
C703        H708   1.082       .  S
C704        C705   1.364       .  A
C704        C903   1.462       .  S
C705        C706   1.363       .  A
C705        H709   1.089       .  S
C706        C707   1.418       .  A
C706        C721   1.456       .  S
C707        H710   1.083       .  S
O711        C721   1.295       .  A
O711       Cu719   2.022       .  S
O712        C722   1.295       .  A
O712      Cu1727   2.023       .  S
O713        C723   1.254       .  A
O713      Cu1727   1.935       .  S
O714        C724   1.254       .  A
O714       Cu719   1.934       .  S
O715        C724   1.295       .  A
O715       Cu720   2.023       .  S
O716        C723   1.295       .  A
O716      Cu1728   2.022       .  S
O717        C722   1.254       .  A
O717      Cu1728   1.935       .  S
O718        C721   1.254       .  A
O718       Cu720   1.934       .  S
Cu719      O1720   2.023   1_545  S
Cu719      O1721   1.935   1_545  S
Cu719      Cu720   2.405       .  S
Cu720      O1724   2.022   1_545  S
Cu720      O1725   1.935   1_545  S
C723        C851   1.457       .  S
C724        C741   1.457       .  S
O725        C735   1.254       .  A
O725      Cu1741   1.935       .  S
O726        C736   1.254       .  A
O726       Cu733   1.934       .  S
O727        C737   1.295       .  A
O727       Cu733   2.023       .  S
O728        C738   1.295       .  A
O728      Cu1741   2.022       .  S
O729        C738   1.254       .  A
O729      Cu1742   1.935       .  S
O730        C737   1.254       .  A
O730       Cu734   1.934       .  S
O731        C736   1.295       .  A
O731       Cu734   2.022       .  S
O732        C735   1.295       .  A
O732      Cu1742   2.023       .  S
Cu733      O1733   1.935   1_545  S
Cu733      O1736   2.022   1_545  S
Cu733      Cu734   2.405       .  S
Cu734      O1737   1.935   1_545  S
Cu734      O1740   2.023   1_545  S
C736        C752   1.456       .  S
C737        C743   1.457       .  S
C738        C885   1.457       .  S
C739        C740   1.422       .  A
C739        C744   1.422       .  A
C740        C741   1.419       .  A
C740        H745   1.083       .  S
C741        C742   1.363   1_545  A
C742        C743   1.363   1_565  A
C742       H1754   1.089       .  S
C743        C744   1.419       .  A
C744        H747   1.083       .  S
H746       C1750   1.089       .  S
C748        C954   1.506       .  S
C748        C749   1.426       .  A
C748        C753   1.421       .  A
C749        C750   1.421       .  A
C749        H754   1.082       .  S
C750        C751   1.363       .  A
C750        C824   1.462       .  S
C751        C752   1.363       .  A
C751        H755   1.089       .  S
C752        C753   1.418       .  A
C753        H756   1.083       .  S
O757        C767   1.296       .  A
O758        C768   1.296       .  A
O758       Cu765   2.030       .  S
O759        C769   1.255       .  A
O760        C770   1.254       .  A
O760       Cu765   1.941       .  S
O761        C770   1.296       .  A
O761       Cu766   2.030       .  S
O762        C769   1.296       .  A
O763        C768   1.255       .  A
O763       Cu766   1.941       .  S
O764        C767   1.255       .  A
Cu765      Cu766   2.404       .  S
C768        C805   1.462       .  S
C769        C775   1.463       .  S
C770        C942   1.461       .  S
C771        C772   1.427       .  A
C771        C776   1.426       .  A
C772        C773   1.423       .  A
C772        H777   1.083       .  S
C773        C774   1.363   1_556  A
C774        C775   1.363   1_554  A
C775        C776   1.422       .  A
C776        H779   1.083       .  S
O780        C790   1.254       .  A
O780       Cu788   1.941       .  S
O781        C791   1.255       .  A
O781      Cu2804   1.942       .  S
O782        C792   1.296       .  A
O782       Cu788   2.030       .  S
O783        C793   1.296       .  A
O783      Cu2804   2.032       .  S
O784        C793   1.255       .  A
O784      Cu2805   1.942       .  S
O785        C792   1.255       .  A
O785       Cu789   1.941       .  S
O786        C791   1.296       .  A
O786      Cu2805   2.032       .  S
O787        C790   1.296       .  A
O787       Cu789   2.030       .  S
Cu788      O2797   1.942   1_455  S
Cu788      O2799   2.032   1_455  S
Cu788      Cu789   2.404       .  S
Cu789      O2800   1.942   1_455  S
Cu789      O2802   2.032   1_455  S
C790        C924   1.461       .  S
C791        C796   1.463       .  S
C792        C807   1.462       .  S
C794        C795   1.426       .  A
C794        C799   1.427       .  A
C795        C796   1.422       .  A
C795        H800   1.083       .  S
C796        C797   1.363       .  A
C797        C798   1.363       .  A
C797       H2817   1.089       .  S
C798        C799   1.423       .  A
C799        H802   1.083       .  S
H801       C2813   1.089       .  S
C803        C987   1.511       .  S
C803        C804   1.426       .  A
C803        C808   1.426       .  A
C804        C805   1.422       .  A
C804        H809   1.083       .  S
C805        C806   1.363       .  A
C806        C807   1.363       .  A
C806        H810   1.089       .  S
C807        C808   1.422       .  A
C808        H811   1.083       .  S
O812        C822   1.254       .  A
O813        C823   1.253       .  A
O813       Cu820   1.930       .  S
O814        C824   1.296       .  A
O815        C825   1.296       .  A
O815       Cu820   2.029       .  S
O816        C825   1.256       .  A
O816       Cu821   1.947       .  S
O817        C824   1.255       .  A
O818        C823   1.295       .  A
O818       Cu821   2.025       .  S
O819        C822   1.295       .  A
Cu820      Cu821   2.404       .  S
C822        C830   1.457       .  S
C823        C944   1.456       .  S
C825        C862   1.465       .  S
C826        C827   1.422       .  A
C826        C831   1.422       .  A
C827        C828   1.420       .  A
C827        H832   1.083       .  S
C828        C829   1.362   1_556  A
C829        C830   1.362   1_554  A
C830        C831   1.419       .  A
C831        H834   1.083       .  S
O835        C845   1.255       .  A
O835       Cu843   1.942       .  S
O836        C846   1.254       .  A
O836      Cu1851   1.941       .  S
O837        C847   1.296       .  A
O837      Cu1851   2.032       .  S
O838        C848   1.296       .  A
O838       Cu843   2.030       .  S
O839        C848   1.255       .  A
O839       Cu844   1.941       .  S
O840        C847   1.255       .  A
O840      Cu1852   1.942       .  S
O841        C846   1.296       .  A
O841      Cu1852   2.030       .  S
O842        C845   1.296       .  A
O842       Cu844   2.032       .  S
Cu843      O1844   1.941   1_545  S
Cu843      O1845   2.032   1_545  S
Cu843      Cu844   2.404       .  S
Cu844      O1848   1.942   1_545  S
Cu844      O1849   2.030   1_545  S
C845        C860   1.463       .  S
C847        C853   1.462       .  S
C848        C935   1.462       .  S
C849        C850   1.421       .  A
C849        C854   1.426       .  A
C850        C851   1.418       .  A
C850        H855   1.083       .  S
C851       C1860   1.362       .  A
C852       C1859   1.362   1_545  A
C852       C1861   1.363   1_545  A
C852        H856   1.089       .  S
C853       C1860   1.363       .  A
C853        C854   1.422       .  A
C854        H857   1.082       .  S
C858        C963   1.514       .  S
C858        C859   1.426       .  A
C858        C863   1.427       .  A
C859        C860   1.422       .  A
C859        H864   1.083       .  S
C860        C861   1.363       .  A
C861        C862   1.363       .  A
C861        H865   1.089       .  S
C862        C863   1.423       .  A
C863        H866   1.083       .  S
O867        C877   1.255       .  A
O867       Cu875   1.942       .  S
O868        C878   1.254       .  A
O868      Cu1883   1.941       .  S
O869        C879   1.296       .  A
O869       Cu875   2.030       .  S
O870        C880   1.296       .  A
O870      Cu1883   2.032       .  S
O871        C880   1.255       .  A
O871      Cu1884   1.942       .  S
O872        C879   1.255       .  A
O872       Cu876   1.941       .  S
O873        C878   1.296       .  A
O873      Cu1884   2.030       .  S
O874        C877   1.296       .  A
O874       Cu876   2.033       .  S
Cu875      O1876   1.941   1_545  S
Cu875      O1878   2.032   1_545  S
Cu875      Cu876   2.404       .  S
Cu876      O1879   1.942   1_545  S
Cu876      O1881   2.030   1_545  S
C877        C915   1.463       .  S
C879        C933   1.462       .  S
C880        C883   1.462       .  S
C881        C882   1.426       .  A
C881        C886   1.421       .  A
C882        C883   1.422       .  A
C882        H887   1.082       .  S
C883       C1892   1.363       .  A
C884       C1891   1.363   1_545  A
C884       C1893   1.362   1_545  A
C884        H888   1.089       .  S
C885       C1892   1.362       .  A
C885        C886   1.418       .  A
C886        H889   1.083       .  S
O890        C900   1.295       .  A
O890       Cu898   2.025   1_455  S
O891        C901   1.295       .  A
O891      Cu2914   2.027       .  S
O892        C902   1.256       .  A
O892       Cu898   1.947   1_455  S
O893        C903   1.255       .  A
O893      Cu2914   1.945       .  S
O894        C903   1.296       .  A
O894      Cu2915   2.028       .  S
O895        C902   1.296       .  A
O895       Cu899   2.029   1_455  S
O896        C901   1.254       .  A
O896      Cu2915   1.931       .  S
O897        C900   1.253       .  A
O897       Cu899   1.930   1_455  S
Cu898      O2907   2.027       .  S
Cu898      O2909   1.945       .  S
Cu898      Cu899   2.404       .  S
Cu899      O2910   2.028       .  S
Cu899      O2912   1.931       .  S
C900        C926   1.456       .  S
C901        C908   1.457       .  S
C902        C917   1.465       .  S
C904        C905   1.422       .  A
C904        C909   1.422       .  A
C905        C906   1.420       .  A
C905        H910   1.083       .  S
C906        C907   1.362       .  A
C907        C908   1.362       .  A
C907       H2927   1.089       .  S
C908        C909   1.419       .  A
C909        H912   1.083       .  S
H911       C2923   1.089       .  S
C913        C956   1.514       .  S
C913        C914   1.426       .  A
C913        C918   1.427       .  A
C914        C915   1.422       .  A
C914        H919   1.083       .  S
C915        C916   1.363       .  A
C916        C917   1.363       .  A
C916        H920   1.089       .  S
C917        C918   1.423       .  A
C918        H921   1.083       .  S
C922        C923   1.426       .  A
C922        C927   1.421       .  A
C923        C924   1.421       .  A
C923        H928   1.082       .  S
C924        C925   1.363   1_455  A
C925        C926   1.362   1_655  A
C925       H2945   1.089       .  S
C926        C927   1.418       .  A
C927        H930   1.083       .  S
H929       C2941   1.089       .  S
C931        C932   1.426       .  A
C931        C936   1.426       .  A
C932        C933   1.422       .  A
C932        H937   1.083       .  S
C933        C934   1.363   1_545  A
C934        C935   1.363   1_565  A
C934       H1946   1.089       .  S
C935        C936   1.422       .  A
C936        H939   1.083       .  S
H938       C1942   1.089       .  S
C940        C941   1.426       .  A
C940        C945   1.421       .  A
C941        C942   1.421       .  A
C941        H946   1.082       .  S
C942        C943   1.363       .  A
C943        C944   1.362       .  A
C944        C945   1.418       .  A
C945        H948   1.083       .  S
C949        C950   1.556       .  S
C949        C955   1.557       .  S
C949        C953   1.555       .  S
C949       C1002   1.597       .  S
C950        H957   1.086       .  S
C950        C951   1.377       .  D
C951        C952   1.544       .  S
C952        C956   1.551       .  S
C952        C954   1.544       .  S
C952        H958   1.111       .  S
C953        H959   1.086       .  S
C953        C954   1.376       .  D
C955        H960   1.085       .  S
C955        C956   1.388       .  D
C961        C962   1.557       .  S
C961        C967   1.556       .  S
C961        C965   1.555       .  S
C961       C1004   1.597       .  S
C962        H969   1.085       .  S
C962        C963   1.388       .  D
C963        C964   1.551       .  S
C964        C968   1.544       .  S
C964        C966   1.544       .  S
C964        H970   1.111       .  S
C965        H971   1.086       .  S
C965        C966   1.376       .  D
C967        H972   1.086       .  S
C967        C968   1.377       .  D
C973        C974   1.552       .  S
C973        C979   1.553       .  S
C973        C977   1.553       .  S
C973        C997   1.620       .  S
C974        H981   1.086       .  S
C974        C975   1.377       .  D
C975        C976   1.546       .  S
C976        C980   1.547       .  S
C976        C978   1.547       .  S
C976        H982   1.111       .  S
C977        H983   1.086       .  S
C977        C978   1.378       .  D
C979        H984   1.086       .  S
C979        C980   1.378       .  D
C985        C986   1.555       .  S
C985        C991   1.555       .  S
C985        C989   1.555       .  S
C985        C999   1.593       .  S
C986        H993   1.085       .  S
C986        C987   1.387       .  D
C987        C988   1.550       .  S
C988        C992   1.544       .  S
C988        C990   1.544       .  S
C988        H994   1.111       .  S
C989        H995   1.086       .  S
C989        C990   1.376       .  D
C991        H996   1.086       .  S
C991        C992   1.376       .  D
C997        C998   1.543       .  S
C997       C1003   1.544       .  S
C997       C1001   1.544       .  S
C998       H1005   1.086       .  S
C998        C999   1.379       .  D
C999       C1000   1.597       .  S
C1000      C1004   1.598       .  S
C1000      C1002   1.598       .  S
C1000      H1006   1.107       .  S
C1001      H1007   1.086       .  S
C1001      C1002   1.380       .  D
C1003      H1008   1.086       .  S
C1003      C1004   1.380       .  D
C1009      C1010   1.555       .  S
C1009      C1015   1.555       .  S
C1009      C1013   1.555       .  S
C1009      C1059   1.593       .  S
C1010      H1017   1.086   1_455  S
C1010      C1011   1.376       .  D
C1011      C1012   1.544       .  S
C1011      C1426   1.505       .  S
C1012      C1016   1.550       .  S
C1012      C1014   1.544       .  S
C1012      H1018   1.111       .  S
C1013      H1019   1.086   1_554  S
C1013      C1014   1.376       .  D
C1014      C1444   1.505       .  S
C1015      H1020   1.085       .  S
C1015      C1016   1.387       .  D
C1016      C1435   1.511       .  S
C1021      C1022   1.553       .  S
C1021      C1027   1.552       .  S
C1021      C1025   1.553       .  S
C1021      C1057   1.620       .  S
C1022      H1029   1.086       .  S
C1022      C1023   1.378       .  D
C1023      C1024   1.547       .  S
C1023      C1408   1.505       .  S
C1024      C1028   1.546       .  S
C1024      C1026   1.547       .  S
C1024      H1030   1.111       .  S
C1025      H1031   1.086       .  S
C1025      C1026   1.378       .  D
C1026      C1330   1.505       .  S
C1027      H1032   1.086       .  S
C1027      C1028   1.377       .  D
C1028      C1243   1.504       .  S
C1033      C1034   1.557       .  S
C1033      C1039   1.556       .  S
C1033      C1037   1.555       .  S
C1033      C1064   1.597       .  S
C1034      H3057   1.085       .  S
C1034      C1035   1.388       .  D
C1035      C1036   1.551       .  S
C1035      C1298   1.514       .  S
C1036      C1040   1.544       .  S
C1036      C1038   1.544       .  S
C1036      H1042   1.111       .  S
C1037      H1043   1.086       .  S
C1037      C1038   1.376       .  D
C1038      C1133   1.506       .  S
C1039      C1040   1.377       .  D
C1040      C1353   1.507       .  S
H1041      C3050   1.085   1_455  S
C1045      C1046   1.556       .  S
C1045      C1051   1.557       .  S
C1045      C1049   1.555       .  S
C1045      C1062   1.597       .  S
C1046      C1047   1.377       .  D
C1047      C1048   1.544       .  S
C1047      C1385   1.507       .  S
C1048      C1052   1.551       .  S
C1048      C1050   1.544       .  S
C1048      H1054   1.111       .  S
C1049      H1055   1.086       .  S
C1049      C1050   1.376       .  D
C1050      C1188   1.506       .  S
C1051      H1560   1.085       .  S
C1051      C1052   1.388       .  D
C1052      C1275   1.514       .  S
H1056      C1555   1.085   1_554  S
C1057      C3578   1.542       .  S
C1057      C1567   1.544       .  S
C1057      C3077   1.544       .  S
C1058      C3577   1.542   1_454  S
C1058      H1065   1.086       .  S
C1058      C1059   1.379       .  D
C1060      C3080   1.598   1_455  S
C1060      C1566   1.598   1_554  S
C1060      H1066   1.107       .  S
C1061      C3073   1.544   1_455  S
C1061      H1067   1.086       .  S
C1062      C1564   1.598       .  S
C1063      C1561   1.544   1_554  S
C1063      H1068   1.086       .  S
C1064      C3076   1.598       .  S
C1069      C1484   1.505       .  S
C1069      C1070   1.422       .  A
C1069      C1074   1.422       .  A
C1070      C1071   1.420       .  A
C1070      H1075   1.083       .  S
C1071      C1072   1.362       .  A
C1071      C1226   1.458       .  S
C1072      C1073   1.362       .  A
C1072      H1076   1.089       .  S
C1073      C1074   1.419       .  A
C1073      C1170   1.457       .  S
C1074      H1077   1.083       .  S
C1078      C1482   1.505       .  S
C1078      C1079   1.422       .  A
C1078      C1083   1.422       .  A
C1079      C1080   1.419       .  A
C1079      H1084   1.083       .  S
C1080      C1081   1.362       .  A
C1080      C1118   1.457       .  S
C1081      C1082   1.362       .  A
C1081      H1085   1.089       .  S
C1082      C1083   1.420       .  A
C1082      C1239   1.458       .  S
C1083      H1086   1.083       .  S
C1087      C1494   1.505       .  S
C1087      C1088   1.426       .  A
C1087      C1092   1.421       .  A
C1088      C1089   1.421       .  A
C1088      H1093   1.082       .  S
C1089      C1090   1.363       .  A
C1089      C1350   1.461       .  S
C1090      C1091   1.362       .  A
C1090      H1094   1.089       .  S
C1091      C1092   1.418       .  A
C1091      C1117   1.456       .  S
C1092      H1095   1.083       .  S
C1096      C1472   1.507       .  S
C1096      C1097   1.426       .  A
C1096      C1101   1.421       .  A
C1097      C1098   1.422       .  A
C1097      H1102   1.082       .  S
C1098      C1099   1.363       .  A
C1098      C1297   1.462       .  S
C1099      C1100   1.363       .  A
C1099      H1103   1.089       .  S
C1100      C1101   1.418       .  A
C1100      C1132   1.457       .  S
C1101      H1104   1.083       .  S
O1105      C1115   1.296       .  A
O1105     Cu1617   2.029       .  S
O1106      C1116   1.296       .  A
O1106     Cu1113   2.028       .  S
O1107      C1117   1.253       .  A
O1107     Cu1113   1.930       .  S
O1108      C1118   1.253       .  A
O1108     Cu1617   1.931       .  S
O1109      C1118   1.295       .  A
O1109     Cu1618   2.027       .  S
O1110      C1117   1.295       .  A
O1110     Cu1114   2.025       .  S
O1111      C1116   1.255       .  A
O1111     Cu1114   1.944       .  S
O1112      C1115   1.256       .  A
O1112     Cu1618   1.947       .  S
Cu1113     O1609   2.029   1_554  S
Cu1113     O1612   1.931   1_554  S
Cu1113    Cu1114   2.404       .  S
Cu1114     O1613   2.027   1_554  S
Cu1114     O1616   1.947   1_554  S
C1115      C1277   1.465       .  S
C1116      C1137   1.462       .  S
O1119      C1129   1.254       .  A
O1119     Cu1127   1.934       .  S
O1120      C1130   1.254       .  A
O1120     Cu1631   1.935       .  S
O1121      C1131   1.295       .  A
O1121     Cu1631   2.023       .  S
O1122      C1132   1.295       .  A
O1122     Cu1127   2.022       .  S
O1123      C1132   1.254       .  A
O1123     Cu1128   1.935       .  S
O1124      C1131   1.254       .  A
O1124     Cu1632   1.934       .  S
O1125      C1130   1.295       .  A
O1125     Cu1632   2.023       .  S
O1126      C1129   1.295       .  A
O1126     Cu1128   2.022       .  S
Cu1127     O1624   1.935   1_554  S
Cu1127     O1625   2.023   1_554  S
Cu1127    Cu1128   2.405       .  S
Cu1128     O1628   1.934   1_554  S
Cu1128     O1629   2.023   1_554  S
C1129      C1135   1.456       .  S
C1130      C1332   1.458       .  S
C1131      C1146   1.457       .  S
C1133      C1134   1.421       .  A
C1133      C1138   1.426       .  A
C1134      C1135   1.418       .  A
C1134      H1139   1.083       .  S
C1135      C1136   1.363   1_554  A
C1136      C1137   1.364   1_556  A
C1136      H1644   1.089       .  S
C1137      C1138   1.421       .  A
C1138      H1141   1.082       .  S
H1140      C1640   1.089       .  S
C1142      C1479   1.504       .  S
C1142      C1143   1.422       .  A
C1142      C1147   1.422       .  A
C1143      C1144   1.419       .  A
C1143      H1148   1.083       .  S
C1144      C1145   1.363       .  A
C1144      C1184   1.457       .  S
C1145      C1146   1.363       .  A
C1145      H1149   1.089       .  S
C1146      C1147   1.419       .  A
C1147      H1150   1.083       .  S
C1151      C1496   1.505       .  S
C1151      C1152   1.426       .  A
C1151      C1156   1.421       .  A
C1152      C1153   1.421       .  A
C1152      H1157   1.082       .  S
C1153      C1154   1.363       .  A
C1153      C1382   1.461       .  S
C1154      C1155   1.362       .  A
C1154      H1158   1.089       .  S
C1155      C1156   1.418       .  A
C1155      C1171   1.456       .  S
C1156      H1159   1.083       .  S
O1160      C1170   1.254       .  A
O1160     Cu3184   1.931       .  S
O1161      C1171   1.253       .  A
O1161     Cu1168   1.930       .  S
O1162      C1172   1.296       .  A
O1162     Cu1168   2.028       .  S
O1163      C1173   1.296       .  A
O1163     Cu3184   2.029       .  S
O1164      C1173   1.256       .  A
O1164     Cu3185   1.947       .  S
O1165      C1172   1.255       .  A
O1165     Cu1169   1.944       .  S
O1166      C1171   1.295       .  A
O1166     Cu1169   2.025       .  S
O1167      C1170   1.295       .  A
O1167     Cu3185   2.027       .  S
Cu1168     O3176   1.931   1_455  S
Cu1168     O3179   2.029   1_455  S
Cu1168    Cu1169   2.404       .  S
Cu1169     O3180   1.947   1_455  S
Cu1169     O3183   2.027   1_455  S
C1172      C1190   1.462       .  S
C1173      C1302   1.465       .  S
O1174      C1184   1.254       .  A
O1174     Cu3198   1.934       .  S
O1175      C1185   1.254       .  A
O1175     Cu1182   1.935       .  S
O1176      C1186   1.295       .  A
O1176     Cu3198   2.023       .  S
O1177      C1187   1.295       .  A
O1177     Cu1182   2.022       .  S
O1178      C1187   1.254       .  A
O1178     Cu1183   1.934       .  S
O1179      C1186   1.254       .  A
O1179     Cu3199   1.935       .  S
O1180      C1185   1.295       .  A
O1180     Cu1183   2.022       .  S
O1181      C1184   1.295       .  A
O1181     Cu3199   2.023       .  S
Cu1182     O3190   1.934   1_455  S
Cu1182     O3192   2.023   1_455  S
Cu1182    Cu1183   2.405       .  S
Cu1183     O3195   1.935   1_455  S
Cu1183     O3197   2.023   1_455  S
C1185      C1199   1.457       .  S
C1186      C1410   1.458       .  S
C1187      C1192   1.456       .  S
C1188      C1189   1.426       .  A
C1188      C1193   1.421       .  A
C1189      C1190   1.421       .  A
C1189      H1194   1.082       .  S
C1190      C1191   1.363   1_455  A
C1191      C1192   1.363   1_655  A
C1191      H3211   1.089       .  S
C1192      C1193   1.418       .  A
C1193      H1196   1.083       .  S
H1195      C3207   1.089       .  S
C1197      C1455   1.507       .  S
C1197      C1198   1.421       .  A
C1197      C1202   1.426       .  A
C1198      C1199   1.418       .  A
C1198      H1203   1.083       .  S
C1199      C1200   1.362       .  A
C1200      C1201   1.363       .  A
C1200      H1204   1.089       .  S
C1201      C1202   1.422       .  A
C1201      C1271   1.462       .  S
C1202      H1205   1.082       .  S
C1206      C1470   1.506       .  S
C1206      C1207   1.426       .  A
C1206      C1211   1.421       .  A
C1207      C1208   1.421       .  A
C1207      H1212   1.082       .  S
C1208      C1209   1.364       .  A
C1208      C1407   1.462       .  S
C1209      C1210   1.363       .  A
C1209      H1213   1.089       .  S
C1210      C1211   1.418       .  A
C1210      C1225   1.456       .  S
C1211      H1214   1.083       .  S
O1215      C1225   1.295       .  A
O1215     Cu1223   2.022       .  S
O1216      C1226   1.295       .  A
O1217      C1227   1.254       .  A
O1218      C1228   1.254       .  A
O1218     Cu1223   1.934       .  S
O1219      C1228   1.295       .  A
O1219     Cu1224   2.023       .  S
O1220      C1227   1.295       .  A
O1221      C1226   1.254       .  A
O1222      C1225   1.254       .  A
O1222     Cu1224   1.934       .  S
Cu1223    Cu1224   2.405       .  S
C1227      C1355   1.457       .  S
C1228      C1245   1.457       .  S
O1229      C1239   1.254       .  A
O1230      C1240   1.254       .  A
O1230     Cu1237   1.934       .  S
O1231      C1241   1.295       .  A
O1231     Cu1237   2.023       .  S
O1232      C1242   1.295       .  A
O1233      C1242   1.254       .  A
O1234      C1241   1.254       .  A
O1234     Cu1238   1.934       .  S
O1235      C1240   1.295       .  A
O1235     Cu1238   2.022       .  S
O1236      C1239   1.295       .  A
Cu1237    Cu1238   2.405       .  S
C1240      C1256   1.456       .  S
C1241      C1247   1.457       .  S
C1242      C1389   1.457       .  S
C1243      C1244   1.422       .  A
C1243      C1248   1.422       .  A
C1244      C1245   1.419       .  A
C1244      H1249   1.083       .  S
C1245      C1246   1.363       .  A
C1246      C1247   1.363       .  A
C1247      C1248   1.419       .  A
C1248      H1251   1.083       .  S
C1252      C1458   1.506       .  S
C1252      C1253   1.426       .  A
C1252      C1257   1.421       .  A
C1253      C1254   1.421       .  A
C1253      H1258   1.082       .  S
C1254      C1255   1.363       .  A
C1254      C1328   1.462       .  S
C1255      C1256   1.363       .  A
C1255      H1259   1.089       .  S
C1256      C1257   1.418       .  A
C1257      H1260   1.083       .  S
O1261      C1271   1.296       .  A
O1261     Cu1773   2.032       .  S
O1262      C1272   1.296       .  A
O1262     Cu1269   2.030       .  S
O1263      C1273   1.255       .  A
O1263     Cu1773   1.942       .  S
O1264      C1274   1.254       .  A
O1264     Cu1269   1.941       .  S
O1265      C1274   1.296       .  A
O1265     Cu1270   2.030       .  S
O1266      C1273   1.296       .  A
O1266     Cu1774   2.032       .  S
O1267      C1272   1.255       .  A
O1267     Cu1270   1.941       .  S
O1268      C1271   1.255       .  A
O1268     Cu1774   1.942       .  S
Cu1269     O1765   2.032   1_554  S
Cu1269     O1767   1.942   1_554  S
Cu1269    Cu1270   2.404       .  S
Cu1270     O1770   2.032   1_554  S
Cu1270     O1772   1.942   1_554  S
C1272      C1309   1.462       .  S
C1273      C1279   1.463       .  S
C1274      C1446   1.461       .  S
C1275      C1276   1.427       .  A
C1275      C1280   1.426       .  A
C1276      C1277   1.423       .  A
C1276      H1281   1.083       .  S
C1277      C1278   1.363       .  A
C1278      C1279   1.363       .  A
C1278      H1786   1.089       .  S
C1279      C1280   1.422       .  A
C1280      H1283   1.083       .  S
H1282      C1782   1.089       .  S
O1284      C1294   1.254       .  A
O1284     Cu1292   1.941       .  S
O1285      C1295   1.255       .  A
O1285     Cu3308   1.942       .  S
O1286      C1296   1.296       .  A
O1286     Cu1292   2.030       .  S
O1287      C1297   1.296       .  A
O1287     Cu3308   2.032       .  S
O1288      C1297   1.255       .  A
O1288     Cu3309   1.942       .  S
O1289      C1296   1.255       .  A
O1289     Cu1293   1.941       .  S
O1290      C1295   1.296       .  A
O1290     Cu3309   2.032       .  S
O1291      C1294   1.296       .  A
O1291     Cu1293   2.030       .  S
Cu1292     O3301   1.942   1_455  S
Cu1292     O3303   2.032   1_455  S
Cu1292    Cu1293   2.404       .  S
Cu1293     O3304   1.942   1_455  S
Cu1293     O3306   2.032   1_455  S
C1294      C1428   1.461       .  S
C1295      C1300   1.463       .  S
C1296      C1311   1.462       .  S
C1298      C1299   1.426       .  A
C1298      C1303   1.427       .  A
C1299      C1300   1.422       .  A
C1299      H1304   1.083       .  S
C1300      C1301   1.363       .  A
C1301      C1302   1.363       .  A
C1301      H3321   1.089       .  S
C1302      C1303   1.423       .  A
C1303      H1306   1.083       .  S
H1305      C3317   1.089       .  S
C1307      C1491   1.511       .  S
C1307      C1308   1.426       .  A
C1307      C1312   1.426       .  A
C1308      C1309   1.422       .  A
C1308      H1313   1.083       .  S
C1309      C1310   1.363       .  A
C1310      C1311   1.363       .  A
C1310      H1314   1.089       .  S
C1311      C1312   1.422       .  A
C1312      H1315   1.083       .  S
O1316      C1326   1.254       .  A
O1316     Cu1828   1.931       .  S
O1317      C1327   1.253       .  A
O1317     Cu1324   1.930   1_554  S
O1318      C1328   1.296       .  A
O1318     Cu1828   2.028       .  S
O1319      C1329   1.296       .  A
O1319     Cu1324   2.029   1_554  S
O1320      C1329   1.256       .  A
O1320     Cu1325   1.947   1_554  S
O1321      C1328   1.255       .  A
O1321     Cu1829   1.944       .  S
O1322      C1327   1.295       .  A
O1322     Cu1325   2.025   1_554  S
O1323      C1326   1.295       .  A
O1323     Cu1829   2.027       .  S
Cu1324     O1820   1.931       .  S
Cu1324     O1822   2.028       .  S
Cu1324    Cu1325   2.404       .  S
Cu1325     O1825   1.944       .  S
Cu1325     O1827   2.027       .  S
C1326      C1334   1.457       .  S
C1327      C1448   1.456       .  S
C1329      C1366   1.465       .  S
C1330      C1331   1.422       .  A
C1330      C1335   1.422       .  A
C1331      C1332   1.420       .  A
C1331      H1336   1.083       .  S
C1332      C1333   1.362       .  A
C1333      C1334   1.362       .  A
C1333      H1841   1.089       .  S
C1334      C1335   1.419       .  A
C1335      H1338   1.083       .  S
H1337      C1837   1.089       .  S
O1339      C1349   1.255       .  A
O1339     Cu1347   1.942       .  S
O1340      C1350   1.254       .  A
O1341      C1351   1.296       .  A
O1342      C1352   1.296       .  A
O1342     Cu1347   2.030       .  S
O1343      C1352   1.255       .  A
O1343     Cu1348   1.941       .  S
O1344      C1351   1.255       .  A
O1345      C1350   1.296       .  A
O1346      C1349   1.296       .  A
O1346     Cu1348   2.032       .  S
Cu1347    Cu1348   2.404       .  S
C1349      C1364   1.463       .  S
C1351      C1357   1.462       .  S
C1352      C1439   1.462       .  S
C1353      C1354   1.421       .  A
C1353      C1358   1.426       .  A
C1354      C1355   1.418       .  A
C1354      H1359   1.083       .  S
C1356      H1360   1.089       .  S
C1357      C1358   1.422       .  A
C1358      H1361   1.082       .  S
C1362      C1467   1.514       .  S
C1362      C1363   1.426       .  A
C1362      C1367   1.427       .  A
C1363      C1364   1.422       .  A
C1363      H1368   1.083       .  S
C1364      C1365   1.363       .  A
C1365      C1366   1.363       .  A
C1365      H1369   1.089       .  S
C1366      C1367   1.423       .  A
C1367      H1370   1.083       .  S
O1371      C1381   1.255       .  A
O1371     Cu1379   1.942       .  S
O1372      C1382   1.254       .  A
O1373      C1383   1.296       .  A
O1373     Cu1379   2.030       .  S
O1374      C1384   1.296       .  A
O1375      C1384   1.255       .  A
O1376      C1383   1.255       .  A
O1376     Cu1380   1.941       .  S
O1377      C1382   1.296       .  A
O1378      C1381   1.296       .  A
O1378     Cu1380   2.033       .  S
Cu1379    Cu1380   2.404       .  S
C1381      C1419   1.463       .  S
C1383      C1437   1.462       .  S
C1384      C1387   1.462       .  S
C1385      C1386   1.426       .  A
C1385      C1390   1.421       .  A
C1386      C1387   1.422       .  A
C1386      H1391   1.082       .  S
C1388      H1392   1.089       .  S
C1389      C1390   1.418       .  A
C1390      H1393   1.083       .  S
O1394      C1404   1.295       .  A
O1394     Cu1402   2.025   1_455  S
O1395      C1405   1.295       .  A
O1395     Cu3418   2.027       .  S
O1396      C1406   1.256       .  A
O1396     Cu1402   1.947   1_455  S
O1397      C1407   1.255       .  A
O1397     Cu3418   1.945       .  S
O1398      C1407   1.296       .  A
O1398     Cu3419   2.028       .  S
O1399      C1406   1.296       .  A
O1399     Cu1403   2.029   1_455  S
O1400      C1405   1.254       .  A
O1400     Cu3419   1.931       .  S
O1401      C1404   1.253       .  A
O1401     Cu1403   1.930   1_455  S
Cu1402     O3411   2.027       .  S
Cu1402     O3413   1.945       .  S
Cu1402    Cu1403   2.404       .  S
Cu1403     O3414   2.028       .  S
Cu1403     O3416   1.931       .  S
C1404      C1430   1.456       .  S
C1405      C1412   1.457       .  S
C1406      C1421   1.465       .  S
C1408      C1409   1.422       .  A
C1408      C1413   1.422       .  A
C1409      C1410   1.420       .  A
C1409      H1414   1.083       .  S
C1410      C1411   1.362       .  A
C1411      C1412   1.362       .  A
C1411      H3431   1.089       .  S
C1412      C1413   1.419       .  A
C1413      H1416   1.083       .  S
H1415      C3427   1.089       .  S
C1417      C1460   1.514       .  S
C1417      C1418   1.426       .  A
C1417      C1422   1.427       .  A
C1418      C1419   1.422       .  A
C1418      H1423   1.083       .  S
C1419      C1420   1.363       .  A
C1420      C1421   1.363       .  A
C1420      H1424   1.089       .  S
C1421      C1422   1.423       .  A
C1422      H1425   1.083       .  S
C1426      C1427   1.426       .  A
C1426      C1431   1.421       .  A
C1427      C1428   1.421       .  A
C1427      H1432   1.082       .  S
C1428      C1429   1.363   1_455  A
C1429      C1430   1.362   1_655  A
C1429      H3449   1.089       .  S
C1430      C1431   1.418       .  A
C1431      H1434   1.083       .  S
H1433      C3445   1.089       .  S
C1435      C1436   1.426       .  A
C1435      C1440   1.426       .  A
C1436      C1437   1.422       .  A
C1436      H1441   1.083       .  S
C1437      C1438   1.363       .  A
C1438      C1439   1.363       .  A
C1439      C1440   1.422       .  A
C1440      H1443   1.083       .  S
C1444      C1445   1.426       .  A
C1444      C1449   1.421       .  A
C1445      C1446   1.421       .  A
C1445      H1450   1.082       .  S
C1446      C1447   1.363   1_554  A
C1447      C1448   1.362   1_556  A
C1447      H1955   1.089       .  S
C1448      C1449   1.418       .  A
C1449      H1452   1.083       .  S
H1451      C1951   1.089       .  S
C1453      C1454   1.556       .  S
C1453      C1459   1.557       .  S
C1453      C1457   1.555       .  S
C1453      C1506   1.597       .  S
C1454      H1461   1.086       .  S
C1454      C1455   1.377       .  D
C1455      C1456   1.544       .  S
C1456      C1460   1.551       .  S
C1456      C1458   1.544       .  S
C1456      H1462   1.111       .  S
C1457      H1463   1.086       .  S
C1457      C1458   1.376       .  D
C1459      H1464   1.085       .  S
C1459      C1460   1.388       .  D
C1465      C1466   1.557       .  S
C1465      C1471   1.556       .  S
C1465      C1469   1.555       .  S
C1465      C1508   1.597       .  S
C1466      H1473   1.085       .  S
C1466      C1467   1.388       .  D
C1467      C1468   1.551       .  S
C1468      C1472   1.544       .  S
C1468      C1470   1.544       .  S
C1468      H1474   1.111       .  S
C1469      H1475   1.086       .  S
C1469      C1470   1.376       .  D
C1471      H1476   1.086       .  S
C1471      C1472   1.377       .  D
C1477      C1478   1.552       .  S
C1477      C1483   1.553       .  S
C1477      C1481   1.553       .  S
C1477      C1501   1.620       .  S
C1478      H1485   1.086       .  S
C1478      C1479   1.377       .  D
C1479      C1480   1.546       .  S
C1480      C1484   1.547       .  S
C1480      C1482   1.547       .  S
C1480      H1486   1.111       .  S
C1481      H1487   1.086       .  S
C1481      C1482   1.378       .  D
C1483      H1488   1.086       .  S
C1483      C1484   1.378       .  D
C1489      C1490   1.555       .  S
C1489      C1495   1.555       .  S
C1489      C1493   1.555       .  S
C1489      C1503   1.593       .  S
C1490      H1497   1.085       .  S
C1490      C1491   1.387       .  D
C1491      C1492   1.550       .  S
C1492      C1496   1.544       .  S
C1492      C1494   1.544       .  S
C1492      H1498   1.111       .  S
C1493      H1499   1.086       .  S
C1493      C1494   1.376       .  D
C1495      H1500   1.086       .  S
C1495      C1496   1.376       .  D
C1501      C1502   1.543       .  S
C1501      C1507   1.544       .  S
C1501      C1505   1.544       .  S
C1502      H1509   1.086       .  S
C1502      C1503   1.379       .  D
C1503      C1504   1.597       .  S
C1504      C1508   1.598       .  S
C1504      C1506   1.598       .  S
C1504      H1510   1.107       .  S
C1505      H1511   1.086       .  S
C1505      C1506   1.380       .  D
C1507      H1512   1.086       .  S
C1507      C1508   1.380       .  D
C1513      C1514   1.555       .  S
C1513      C1519   1.555       .  S
C1513      C1517   1.555       .  S
C1513      C1563   1.593       .  S
C1514      H1521   1.086   1_455  S
C1514      C1515   1.376       .  D
C1515      C1516   1.544       .  S
C1515      C1930   1.505       .  S
C1516      C1520   1.550       .  S
C1516      C1518   1.544       .  S
C1516      H1522   1.111       .  S
C1517      H1523   1.086       .  S
C1517      C1518   1.376       .  D
C1518      C1948   1.505       .  S
C1519      H1524   1.085       .  S
C1519      C1520   1.387       .  D
C1520      C1939   1.511       .  S
C1525      C1526   1.553       .  S
C1525      C1531   1.552       .  S
C1525      C1529   1.553       .  S
C1525      C1561   1.620       .  S
C1526      H1533   1.086       .  S
C1526      C1527   1.378       .  D
C1527      C1528   1.547       .  S
C1527      C1912   1.505       .  S
C1528      C1532   1.546       .  S
C1528      C1530   1.547       .  S
C1528      H1534   1.111       .  S
C1529      H1535   1.086   1_556  S
C1529      C1530   1.378       .  D
C1530      C1834   1.505       .  S
C1531      H1536   1.086       .  S
C1531      C1532   1.377       .  D
C1532      C1747   1.504       .  S
C1537      C1538   1.557       .  S
C1537      C1543   1.556       .  S
C1537      C1541   1.555       .  S
C1537      C1568   1.597       .  S
C1538      H3561   1.085       .  S
C1538      C1539   1.388       .  D
C1539      C1540   1.551       .  S
C1539      C1802   1.514       .  S
C1540      C1544   1.544       .  S
C1540      C1542   1.544       .  S
C1540      H1546   1.111       .  S
C1541      H1547   1.086       .  S
C1541      C1542   1.376       .  D
C1542      C1637   1.506       .  S
C1543      C1544   1.377       .  D
C1544      C1857   1.507       .  S
H1545      C3554   1.085   1_455  S
C1549      C1550   1.556       .  S
C1549      C1555   1.557       .  S
C1549      C1553   1.555       .  S
C1549      C1566   1.597       .  S
C1550      C1551   1.377       .  D
C1551      C1552   1.544       .  S
C1551      C1889   1.507       .  S
C1552      C1556   1.551       .  S
C1552      C1554   1.544       .  S
C1552      H1558   1.111       .  S
C1553      H1559   1.086       .  S
C1553      C1554   1.376       .  D
C1554      C1692   1.506       .  S
C1555      C1556   1.388       .  D
C1556      C1779   1.514       .  S
C1561      C3074   1.542   1_556  S
C1561      C3581   1.544       .  S
C1562      C3073   1.542   1_455  S
C1562      H1569   1.086       .  S
C1562      C1563   1.379       .  D
C1564      C3584   1.598   1_455  S
C1564      H1570   1.107       .  S
C1565      C3577   1.544   1_455  S
C1565      H1571   1.086       .  S
C1567      H1572   1.086       .  S
C1568      C3580   1.598       .  S
C1573      C1988   1.505       .  S
C1573      C1574   1.422       .  A
C1573      C1578   1.422       .  A
C1574      C1575   1.420       .  A
C1574      H1579   1.083       .  S
C1575      C1576   1.362       .  A
C1575      C1730   1.458       .  S
C1576      C1577   1.362       .  A
C1576      H1580   1.089       .  S
C1577      C1578   1.419       .  A
C1577      C1674   1.457       .  S
C1578      H1581   1.083       .  S
C1582      C1986   1.505       .  S
C1582      C1583   1.422       .  A
C1582      C1587   1.422       .  A
C1583      C1584   1.419       .  A
C1583      H1588   1.083       .  S
C1584      C1585   1.362       .  A
C1584      C1622   1.457       .  S
C1585      C1586   1.362       .  A
C1585      H1589   1.089       .  S
C1586      C1587   1.420       .  A
C1586      C1743   1.458       .  S
C1587      H1590   1.083       .  S
C1591      C1998   1.505       .  S
C1591      C1592   1.426       .  A
C1591      C1596   1.421       .  A
C1592      C1593   1.421       .  A
C1592      H1597   1.082       .  S
C1593      C1594   1.363       .  A
C1593      C1854   1.461       .  S
C1594      C1595   1.362       .  A
C1594      H1598   1.089       .  S
C1595      C1596   1.418       .  A
C1595      C1621   1.456       .  S
C1596      H1599   1.083       .  S
C1600      C1976   1.507       .  S
C1600      C1601   1.426       .  A
C1600      C1605   1.421       .  A
C1601      C1602   1.422       .  A
C1601      H1606   1.082       .  S
C1602      C1603   1.363       .  A
C1602      C1801   1.462       .  S
C1603      C1604   1.363       .  A
C1603      H1607   1.089       .  S
C1604      C1605   1.418       .  A
C1604      C1636   1.457       .  S
C1605      H1608   1.083       .  S
O1609      C1619   1.296       .  A
O1610      C1620   1.296       .  A
O1610     Cu1617   2.028       .  S
O1611      C1621   1.253       .  A
O1611     Cu1617   1.930       .  S
O1612      C1622   1.253       .  A
O1613      C1622   1.295       .  A
O1614      C1621   1.295       .  A
O1614     Cu1618   2.025       .  S
O1615      C1620   1.255       .  A
O1615     Cu1618   1.944       .  S
O1616      C1619   1.256       .  A
Cu1617    Cu1618   2.404       .  S
C1619      C1781   1.465       .  S
C1620      C1641   1.462       .  S
O1623      C1633   1.254       .  A
O1623     Cu1631   1.934       .  S
O1624      C1634   1.254       .  A
O1625      C1635   1.295       .  A
O1626      C1636   1.295       .  A
O1626     Cu1631   2.022       .  S
O1627      C1636   1.254       .  A
O1627     Cu1632   1.935       .  S
O1628      C1635   1.254       .  A
O1629      C1634   1.295       .  A
O1630      C1633   1.295       .  A
O1630     Cu1632   2.022       .  S
Cu1631    Cu1632   2.405       .  S
C1633      C1639   1.456       .  S
C1634      C1836   1.458       .  S
C1635      C1650   1.457       .  S
C1637      C1638   1.421       .  A
C1637      C1642   1.426       .  A
C1638      C1639   1.418       .  A
C1638      H1643   1.083       .  S
C1639      C1640   1.363       .  A
C1640      C1641   1.364       .  A
C1641      C1642   1.421       .  A
C1642      H1645   1.082       .  S
C1646      C1983   1.504       .  S
C1646      C1647   1.422       .  A
C1646      C1651   1.422       .  A
C1647      C1648   1.419       .  A
C1647      H1652   1.083       .  S
C1648      C1649   1.363       .  A
C1648      C1688   1.457       .  S
C1649      C1650   1.363       .  A
C1649      H1653   1.089       .  S
C1650      C1651   1.419       .  A
C1651      H1654   1.083       .  S
C1655      C2000   1.505       .  S
C1655      C1656   1.426       .  A
C1655      C1660   1.421       .  A
C1656      C1657   1.421       .  A
C1656      H1661   1.082       .  S
C1657      C1658   1.363       .  A
C1657      C1886   1.461       .  S
C1658      C1659   1.362       .  A
C1658      H1662   1.089       .  S
C1659      C1660   1.418       .  A
C1659      C1675   1.456       .  S
C1660      H1663   1.083       .  S
O1664      C1674   1.254       .  A
O1664     Cu3688   1.931       .  S
O1665      C1675   1.253       .  A
O1665     Cu1672   1.930       .  S
O1666      C1676   1.296       .  A
O1666     Cu1672   2.028       .  S
O1667      C1677   1.296       .  A
O1667     Cu3688   2.029       .  S
O1668      C1677   1.256       .  A
O1668     Cu3689   1.947       .  S
O1669      C1676   1.255       .  A
O1669     Cu1673   1.944       .  S
O1670      C1675   1.295       .  A
O1670     Cu1673   2.025       .  S
O1671      C1674   1.295       .  A
O1671     Cu3689   2.027       .  S
Cu1672     O3680   1.931   1_455  S
Cu1672     O3683   2.029   1_455  S
Cu1672    Cu1673   2.404       .  S
Cu1673     O3684   1.947   1_455  S
Cu1673     O3687   2.027   1_455  S
C1676      C1694   1.462       .  S
C1677      C1806   1.465       .  S
O1678      C1688   1.254       .  A
O1678     Cu3702   1.934       .  S
O1679      C1689   1.254       .  A
O1679     Cu1686   1.935       .  S
O1680      C1690   1.295       .  A
O1680     Cu3702   2.023       .  S
O1681      C1691   1.295       .  A
O1681     Cu1686   2.022       .  S
O1682      C1691   1.254       .  A
O1682     Cu1687   1.934       .  S
O1683      C1690   1.254       .  A
O1683     Cu3703   1.935       .  S
O1684      C1689   1.295       .  A
O1684     Cu1687   2.022       .  S
O1685      C1688   1.295       .  A
O1685     Cu3703   2.023       .  S
Cu1686     O3694   1.934   1_455  S
Cu1686     O3696   2.023   1_455  S
Cu1686    Cu1687   2.405       .  S
Cu1687     O3699   1.935   1_455  S
Cu1687     O3701   2.023   1_455  S
C1689      C1703   1.457       .  S
C1690      C1914   1.458       .  S
C1691      C1696   1.456       .  S
C1692      C1693   1.426       .  A
C1692      C1697   1.421       .  A
C1693      C1694   1.421       .  A
C1693      H1698   1.082       .  S
C1694      C1695   1.363   1_455  A
C1695      C1696   1.363   1_655  A
C1695      H3715   1.089       .  S
C1696      C1697   1.418       .  A
C1697      H1700   1.083       .  S
H1699      C3711   1.089       .  S
C1701      C1959   1.507       .  S
C1701      C1702   1.421       .  A
C1701      C1706   1.426       .  A
C1702      C1703   1.418       .  A
C1702      H1707   1.083       .  S
C1703      C1704   1.362       .  A
C1704      C1705   1.363       .  A
C1704      H1708   1.089       .  S
C1705      C1706   1.422       .  A
C1705      C1775   1.462       .  S
C1706      H1709   1.082       .  S
C1710      C1974   1.506       .  S
C1710      C1711   1.426       .  A
C1710      C1715   1.421       .  A
C1711      C1712   1.421       .  A
C1711      H1716   1.082       .  S
C1712      C1713   1.364       .  A
C1712      C1911   1.462       .  S
C1713      C1714   1.363       .  A
C1713      H1717   1.089       .  S
C1714      C1715   1.418       .  A
C1714      C1729   1.456       .  S
C1715      H1718   1.083       .  S
O1719      C1729   1.295       .  A
O1719     Cu1727   2.022       .  S
O1720      C1730   1.295       .  A
O1721      C1731   1.254       .  A
O1722      C1732   1.254       .  A
O1722     Cu1727   1.934       .  S
O1723      C1732   1.295       .  A
O1723     Cu1728   2.023       .  S
O1724      C1731   1.295       .  A
O1725      C1730   1.254       .  A
O1726      C1729   1.254       .  A
O1726     Cu1728   1.934       .  S
Cu1727    Cu1728   2.405       .  S
C1731      C1859   1.457       .  S
C1732      C1749   1.457       .  S
O1733      C1743   1.254       .  A
O1734      C1744   1.254       .  A
O1734     Cu1741   1.934       .  S
O1735      C1745   1.295       .  A
O1735     Cu1741   2.023       .  S
O1736      C1746   1.295       .  A
O1737      C1746   1.254       .  A
O1738      C1745   1.254       .  A
O1738     Cu1742   1.934       .  S
O1739      C1744   1.295       .  A
O1739     Cu1742   2.022       .  S
O1740      C1743   1.295       .  A
Cu1741    Cu1742   2.405       .  S
C1744      C1760   1.456       .  S
C1745      C1751   1.457       .  S
C1746      C1893   1.457       .  S
C1747      C1748   1.422       .  A
C1747      C1752   1.422       .  A
C1748      C1749   1.419       .  A
C1748      H1753   1.083       .  S
C1749      C1750   1.363       .  A
C1750      C1751   1.363       .  A
C1751      C1752   1.419       .  A
C1752      H1755   1.083       .  S
C1756      C1962   1.506       .  S
C1756      C1757   1.426       .  A
C1756      C1761   1.421       .  A
C1757      C1758   1.421       .  A
C1757      H1762   1.082       .  S
C1758      C1759   1.363       .  A
C1758      C1832   1.462       .  S
C1759      C1760   1.363       .  A
C1759      H1763   1.089       .  S
C1760      C1761   1.418       .  A
C1761      H1764   1.083       .  S
O1765      C1775   1.296       .  A
O1766      C1776   1.296       .  A
O1766     Cu1773   2.030       .  S
O1767      C1777   1.255       .  A
O1768      C1778   1.254       .  A
O1768     Cu1773   1.941       .  S
O1769      C1778   1.296       .  A
O1769     Cu1774   2.030       .  S
O1770      C1777   1.296       .  A
O1771      C1776   1.255       .  A
O1771     Cu1774   1.941       .  S
O1772      C1775   1.255       .  A
Cu1773    Cu1774   2.404       .  S
C1776      C1813   1.462       .  S
C1777      C1783   1.463       .  S
C1778      C1950   1.461       .  S
C1779      C1780   1.427       .  A
C1779      C1784   1.426       .  A
C1780      C1781   1.423       .  A
C1780      H1785   1.083       .  S
C1781      C1782   1.363   1_556  A
C1782      C1783   1.363   1_554  A
C1783      C1784   1.422       .  A
C1784      H1787   1.083       .  S
O1788      C1798   1.254       .  A
O1788     Cu1796   1.941       .  S
O1789      C1799   1.255       .  A
O1789     Cu3812   1.942       .  S
O1790      C1800   1.296       .  A
O1790     Cu1796   2.030       .  S
O1791      C1801   1.296       .  A
O1791     Cu3812   2.032       .  S
O1792      C1801   1.255       .  A
O1792     Cu3813   1.942       .  S
O1793      C1800   1.255       .  A
O1793     Cu1797   1.941       .  S
O1794      C1799   1.296       .  A
O1794     Cu3813   2.032       .  S
O1795      C1798   1.296       .  A
O1795     Cu1797   2.030       .  S
Cu1796     O3805   1.942   1_455  S
Cu1796     O3807   2.032   1_455  S
Cu1796    Cu1797   2.404       .  S
Cu1797     O3808   1.942   1_455  S
Cu1797     O3810   2.032   1_455  S
C1798      C1932   1.461       .  S
C1799      C1804   1.463       .  S
C1800      C1815   1.462       .  S
C1802      C1803   1.426       .  A
C1802      C1807   1.427       .  A
C1803      C1804   1.422       .  A
C1803      H1808   1.083       .  S
C1804      C1805   1.363       .  A
C1805      C1806   1.363       .  A
C1805      H3825   1.089       .  S
C1806      C1807   1.423       .  A
C1807      H1810   1.083       .  S
H1809      C3821   1.089       .  S
C1811      C1995   1.511       .  S
C1811      C1812   1.426       .  A
C1811      C1816   1.426       .  A
C1812      C1813   1.422       .  A
C1812      H1817   1.083       .  S
C1813      C1814   1.363       .  A
C1814      C1815   1.363       .  A
C1814      H1818   1.089       .  S
C1815      C1816   1.422       .  A
C1816      H1819   1.083       .  S
O1820      C1830   1.254       .  A
O1821      C1831   1.253       .  A
O1821     Cu1828   1.930       .  S
O1822      C1832   1.296       .  A
O1823      C1833   1.296       .  A
O1823     Cu1828   2.029       .  S
O1824      C1833   1.256       .  A
O1824     Cu1829   1.947       .  S
O1825      C1832   1.255       .  A
O1826      C1831   1.295       .  A
O1826     Cu1829   2.025       .  S
O1827      C1830   1.295       .  A
Cu1828    Cu1829   2.404       .  S
C1830      C1838   1.457       .  S
C1831      C1952   1.456       .  S
C1833      C1870   1.465       .  S
C1834      C1835   1.422       .  A
C1834      C1839   1.422       .  A
C1835      C1836   1.420       .  A
C1835      H1840   1.083       .  S
C1836      C1837   1.362   1_556  A
C1837      C1838   1.362   1_554  A
C1838      C1839   1.419       .  A
C1839      H1842   1.083       .  S
O1843      C1853   1.255       .  A
O1843     Cu1851   1.942       .  S
O1844      C1854   1.254       .  A
O1845      C1855   1.296       .  A
O1846      C1856   1.296       .  A
O1846     Cu1851   2.030       .  S
O1847      C1856   1.255       .  A
O1847     Cu1852   1.941       .  S
O1848      C1855   1.255       .  A
O1849      C1854   1.296       .  A
O1850      C1853   1.296       .  A
O1850     Cu1852   2.032       .  S
Cu1851    Cu1852   2.404       .  S
C1853      C1868   1.463       .  S
C1855      C1861   1.462       .  S
C1856      C1943   1.462       .  S
C1857      C1858   1.421       .  A
C1857      C1862   1.426       .  A
C1858      C1859   1.418       .  A
C1858      H1863   1.083       .  S
C1860      H1864   1.089       .  S
C1861      C1862   1.422       .  A
C1862      H1865   1.082       .  S
C1866      C1971   1.514       .  S
C1866      C1867   1.426       .  A
C1866      C1871   1.427       .  A
C1867      C1868   1.422       .  A
C1867      H1872   1.083       .  S
C1868      C1869   1.363       .  A
C1869      C1870   1.363       .  A
C1869      H1873   1.089       .  S
C1870      C1871   1.423       .  A
C1871      H1874   1.083       .  S
O1875      C1885   1.255       .  A
O1875     Cu1883   1.942       .  S
O1876      C1886   1.254       .  A
O1877      C1887   1.296       .  A
O1877     Cu1883   2.030       .  S
O1878      C1888   1.296       .  A
O1879      C1888   1.255       .  A
O1880      C1887   1.255       .  A
O1880     Cu1884   1.941       .  S
O1881      C1886   1.296       .  A
O1882      C1885   1.296       .  A
O1882     Cu1884   2.033       .  S
Cu1883    Cu1884   2.404       .  S
C1885      C1923   1.463       .  S
C1887      C1941   1.462       .  S
C1888      C1891   1.462       .  S
C1889      C1890   1.426       .  A
C1889      C1894   1.421       .  A
C1890      C1891   1.422       .  A
C1890      H1895   1.082       .  S
C1892      H1896   1.089       .  S
C1893      C1894   1.418       .  A
C1894      H1897   1.083       .  S
O1898      C1908   1.295       .  A
O1898     Cu1906   2.025   1_455  S
O1899      C1909   1.295       .  A
O1899     Cu3922   2.027       .  S
O1900      C1910   1.256       .  A
O1900     Cu1906   1.947   1_455  S
O1901      C1911   1.255       .  A
O1901     Cu3922   1.945       .  S
O1902      C1911   1.296       .  A
O1902     Cu3923   2.028       .  S
O1903      C1910   1.296       .  A
O1903     Cu1907   2.029   1_455  S
O1904      C1909   1.254       .  A
O1904     Cu3923   1.931       .  S
O1905      C1908   1.253       .  A
O1905     Cu1907   1.930   1_455  S
Cu1906     O3915   2.027       .  S
Cu1906     O3917   1.945       .  S
Cu1906    Cu1907   2.404       .  S
Cu1907     O3918   2.028       .  S
Cu1907     O3920   1.931       .  S
C1908      C1934   1.456       .  S
C1909      C1916   1.457       .  S
C1910      C1925   1.465       .  S
C1912      C1913   1.422       .  A
C1912      C1917   1.422       .  A
C1913      C1914   1.420       .  A
C1913      H1918   1.083       .  S
C1914      C1915   1.362       .  A
C1915      C1916   1.362       .  A
C1915      H3935   1.089       .  S
C1916      C1917   1.419       .  A
C1917      H1920   1.083       .  S
H1919      C3931   1.089       .  S
C1921      C1964   1.514       .  S
C1921      C1922   1.426       .  A
C1921      C1926   1.427       .  A
C1922      C1923   1.422       .  A
C1922      H1927   1.083       .  S
C1923      C1924   1.363       .  A
C1924      C1925   1.363       .  A
C1924      H1928   1.089       .  S
C1925      C1926   1.423       .  A
C1926      H1929   1.083       .  S
C1930      C1931   1.426       .  A
C1930      C1935   1.421       .  A
C1931      C1932   1.421       .  A
C1931      H1936   1.082       .  S
C1932      C1933   1.363   1_455  A
C1933      C1934   1.362   1_655  A
C1933      H3953   1.089       .  S
C1934      C1935   1.418       .  A
C1935      H1938   1.083       .  S
H1937      C3949   1.089       .  S
C1939      C1940   1.426       .  A
C1939      C1944   1.426       .  A
C1940      C1941   1.422       .  A
C1940      H1945   1.083       .  S
C1941      C1942   1.363       .  A
C1942      C1943   1.363       .  A
C1943      C1944   1.422       .  A
C1944      H1947   1.083       .  S
C1948      C1949   1.426       .  A
C1948      C1953   1.421       .  A
C1949      C1950   1.421       .  A
C1949      H1954   1.082       .  S
C1950      C1951   1.363       .  A
C1951      C1952   1.362       .  A
C1952      C1953   1.418       .  A
C1953      H1956   1.083       .  S
C1957      C1958   1.556       .  S
C1957      C1963   1.557       .  S
C1957      C1961   1.555       .  S
C1957      C2010   1.597       .  S
C1958      H1965   1.086       .  S
C1958      C1959   1.377       .  D
C1959      C1960   1.544       .  S
C1960      C1964   1.551       .  S
C1960      C1962   1.544       .  S
C1960      H1966   1.111       .  S
C1961      H1967   1.086       .  S
C1961      C1962   1.376       .  D
C1963      H1968   1.085       .  S
C1963      C1964   1.388       .  D
C1969      C1970   1.557       .  S
C1969      C1975   1.556       .  S
C1969      C1973   1.555       .  S
C1969      C2012   1.597       .  S
C1970      H1977   1.085       .  S
C1970      C1971   1.388       .  D
C1971      C1972   1.551       .  S
C1972      C1976   1.544       .  S
C1972      C1974   1.544       .  S
C1972      H1978   1.111       .  S
C1973      H1979   1.086       .  S
C1973      C1974   1.376       .  D
C1975      H1980   1.086       .  S
C1975      C1976   1.377       .  D
C1981      C1982   1.552       .  S
C1981      C1987   1.553       .  S
C1981      C1985   1.553       .  S
C1981      C2005   1.620       .  S
C1982      H1989   1.086       .  S
C1982      C1983   1.377       .  D
C1983      C1984   1.546       .  S
C1984      C1988   1.547       .  S
C1984      C1986   1.547       .  S
C1984      H1990   1.111       .  S
C1985      H1991   1.086       .  S
C1985      C1986   1.378       .  D
C1987      H1992   1.086       .  S
C1987      C1988   1.378       .  D
C1993      C1994   1.555       .  S
C1993      C1999   1.555       .  S
C1993      C1997   1.555       .  S
C1993      C2007   1.593       .  S
C1994      H2001   1.085       .  S
C1994      C1995   1.387       .  D
C1995      C1996   1.550       .  S
C1996      C2000   1.544       .  S
C1996      C1998   1.544       .  S
C1996      H2002   1.111       .  S
C1997      H2003   1.086       .  S
C1997      C1998   1.376       .  D
C1999      H2004   1.086       .  S
C1999      C2000   1.376       .  D
C2005      C2006   1.543       .  S
C2005      C2011   1.544       .  S
C2005      C2009   1.544       .  S
C2006      H2013   1.086       .  S
C2006      C2007   1.379       .  D
C2007      C2008   1.597       .  S
C2008      C2012   1.598       .  S
C2008      C2010   1.598       .  S
C2008      H2014   1.107       .  S
C2009      H2015   1.086       .  S
C2009      C2010   1.380       .  D
C2011      H2016   1.086       .  S
C2011      C2012   1.380       .  D
C2017      C2018   1.555       .  S
C2017      C2023   1.555       .  S
C2017      C2021   1.555       .  S
C2017      C2067   1.593       .  S
C2018      H2025   1.086       .  S
C2018      C2019   1.376       .  D
C2019      C2020   1.544       .  S
C2019      C2434   1.505       .  S
C2020      C2024   1.550       .  S
C2020      C2022   1.544       .  S
C2020      H2026   1.111       .  S
C2021      H2027   1.086   1_554  S
C2021      C2022   1.376       .  D
C2022      C2452   1.505       .  S
C2023      H2028   1.085   1_545  S
C2023      C2024   1.387       .  D
C2024      C2443   1.511       .  S
C2029      C2030   1.553       .  S
C2029      C2035   1.552       .  S
C2029      C2033   1.553       .  S
C2029      C2065   1.620       .  S
C2030      H2037   1.086   1_655  S
C2030      C2031   1.378       .  D
C2031      C2032   1.547       .  S
C2031      C2416   1.505       .  S
C2032      C2036   1.546       .  S
C2032      C2034   1.547       .  S
C2032      H2038   1.111       .  S
C2033      H2039   1.086       .  S
C2033      C2034   1.378       .  D
C2034      C2338   1.505       .  S
C2035      H2040   1.086       .  S
C2035      C2036   1.377       .  D
C2036      C2251   1.504       .  S
C2041      C2042   1.557       .  S
C2041      C2047   1.556       .  S
C2041      C2045   1.555       .  S
C2041      C2072   1.597       .  S
C2042      C2043   1.388       .  D
C2043      C2044   1.551       .  S
C2043      C2306   1.514       .  S
C2044      C2048   1.544       .  S
C2044      C2046   1.544       .  S
C2044      H2050   1.111       .  S
C2045      H2051   1.086       .  S
C2045      C2046   1.376       .  D
C2046      C2141   1.506       .  S
C2047      H3060   1.086       .  S
C2047      C2048   1.377       .  D
C2048      C2361   1.507       .  S
H2052      C3055   1.086   1_545  S
C2053      C2054   1.556       .  S
C2053      C2059   1.557       .  S
C2053      C2057   1.555       .  S
C2053      C2070   1.597       .  S
C2054      H3069   1.086       .  S
C2054      C2055   1.377       .  D
C2055      C2056   1.544       .  S
C2055      C2393   1.507       .  S
C2056      C2060   1.551       .  S
C2056      C2058   1.544       .  S
C2056      H2062   1.111       .  S
C2057      H2063   1.086       .  S
C2057      C2058   1.376       .  D
C2058      C2196   1.506       .  S
C2059      H2568   1.085       .  S
C2059      C2060   1.388       .  D
C2060      C2283   1.514       .  S
H2061      C3062   1.086   1_545  S
H2064      C2563   1.085   1_554  S
C2065      C2575   1.544       .  S
C2066      H2073   1.086       .  S
C2066      C2067   1.379       .  D
C2067      C3076   1.597   1_545  S
C2068      C3075   1.597       .  S
C2068      C2574   1.598   1_554  S
C2068      H2074   1.107       .  S
C2069      H2075   1.086       .  S
C2069      C3078   1.380   1_545  D
C2070      C2572   1.598       .  S
C2070      C3077   1.380       .  D
C2071      C2569   1.544   1_554  S
C2071      H2076   1.086       .  S
C2071      C3080   1.380   1_545  D
C2072      C3079   1.380       .  D
C2077      C2492   1.505       .  S
C2077      C2078   1.422       .  A
C2077      C2082   1.422       .  A
C2078      C2079   1.420       .  A
C2078      H2083   1.083       .  S
C2079      C2080   1.362       .  A
C2079      C2234   1.458       .  S
C2080      C2081   1.362       .  A
C2080      H2084   1.089       .  S
C2081      C2082   1.419       .  A
C2081      C2178   1.457       .  S
C2082      H2085   1.083       .  S
C2086      C2490   1.505       .  S
C2086      C2087   1.422       .  A
C2086      C2091   1.422       .  A
C2087      C2088   1.419       .  A
C2087      H2092   1.083       .  S
C2088      C2089   1.362       .  A
C2088      C2126   1.457       .  S
C2089      C2090   1.362       .  A
C2089      H2093   1.089       .  S
C2090      C2091   1.420       .  A
C2090      C2247   1.458       .  S
C2091      H2094   1.083       .  S
C2095      C2502   1.505       .  S
C2095      C2096   1.426       .  A
C2095      C2100   1.421       .  A
C2096      C2097   1.421       .  A
C2096      H2101   1.082       .  S
C2097      C2098   1.363       .  A
C2097      C2358   1.461       .  S
C2098      C2099   1.362       .  A
C2098      H2102   1.089       .  S
C2099      C2100   1.418       .  A
C2099      C2125   1.456       .  S
C2100      H2103   1.083       .  S
C2104      C2480   1.507       .  S
C2104      C2105   1.426       .  A
C2104      C2109   1.421       .  A
C2105      C2106   1.422       .  A
C2105      H2110   1.082       .  S
C2106      C2107   1.363       .  A
C2106      C2305   1.462       .  S
C2107      C2108   1.363       .  A
C2107      H2111   1.089       .  S
C2108      C2109   1.418       .  A
C2108      C2140   1.457       .  S
C2109      H2112   1.083       .  S
O2113      C2123   1.296       .  A
O2113     Cu2625   2.029       .  S
O2114      C2124   1.296       .  A
O2114     Cu2121   2.028       .  S
O2115      C2125   1.253       .  A
O2115     Cu2121   1.930       .  S
O2116      C2126   1.253       .  A
O2116     Cu2625   1.931       .  S
O2117      C2126   1.295       .  A
O2117     Cu2626   2.027       .  S
O2118      C2125   1.295       .  A
O2118     Cu2122   2.025       .  S
O2119      C2124   1.255       .  A
O2119     Cu2122   1.944       .  S
O2120      C2123   1.256       .  A
O2120     Cu2626   1.947       .  S
Cu2121     O2617   2.029   1_554  S
Cu2121     O2620   1.931   1_554  S
Cu2121    Cu2122   2.404       .  S
Cu2122     O2621   2.027   1_554  S
Cu2122     O2624   1.947   1_554  S
C2123      C2285   1.465       .  S
C2124      C2145   1.462       .  S
O2127      C2137   1.254       .  A
O2127     Cu2135   1.934       .  S
O2128      C2138   1.254       .  A
O2128     Cu2639   1.935       .  S
O2129      C2139   1.295       .  A
O2129     Cu2639   2.023       .  S
O2130      C2140   1.295       .  A
O2130     Cu2135   2.022       .  S
O2131      C2140   1.254       .  A
O2131     Cu2136   1.935       .  S
O2132      C2139   1.254       .  A
O2132     Cu2640   1.934       .  S
O2133      C2138   1.295       .  A
O2133     Cu2640   2.023       .  S
O2134      C2137   1.295       .  A
O2134     Cu2136   2.022       .  S
Cu2135     O2632   1.935   1_554  S
Cu2135     O2633   2.023   1_554  S
Cu2135    Cu2136   2.405       .  S
Cu2136     O2636   1.934   1_554  S
Cu2136     O2637   2.023   1_554  S
C2137      C2143   1.456       .  S
C2138      C2340   1.458       .  S
C2139      C2154   1.457       .  S
C2141      C2142   1.421       .  A
C2141      C2146   1.426       .  A
C2142      C2143   1.418       .  A
C2142      H2147   1.083       .  S
C2143      C2144   1.363   1_554  A
C2144      C2145   1.364   1_556  A
C2144      H2652   1.089       .  S
C2145      C2146   1.421       .  A
C2146      H2149   1.082       .  S
H2148      C2648   1.089       .  S
C2150      C2487   1.504       .  S
C2150      C2151   1.422       .  A
C2150      C2155   1.422       .  A
C2151      C2152   1.419       .  A
C2151      H2156   1.083       .  S
C2152      C2153   1.363       .  A
C2152      C2192   1.457       .  S
C2153      C2154   1.363       .  A
C2153      H2157   1.089       .  S
C2154      C2155   1.419       .  A
C2155      H2158   1.083       .  S
C2159      C2504   1.505       .  S
C2159      C2160   1.426       .  A
C2159      C2164   1.421       .  A
C2160      C2161   1.421       .  A
C2160      H2165   1.082       .  S
C2161      C2162   1.363       .  A
C2161      C2390   1.461       .  S
C2162      C2163   1.362       .  A
C2162      H2166   1.089       .  S
C2163      C2164   1.418       .  A
C2163      C2179   1.456       .  S
C2164      H2167   1.083       .  S
O2168      C2178   1.254       .  A
O2169      C2179   1.253       .  A
O2169     Cu2176   1.930       .  S
O2170      C2180   1.296       .  A
O2170     Cu2176   2.028       .  S
O2171      C2181   1.296       .  A
O2172      C2181   1.256       .  A
O2173      C2180   1.255       .  A
O2173     Cu2177   1.944       .  S
O2174      C2179   1.295       .  A
O2174     Cu2177   2.025       .  S
O2175      C2178   1.295       .  A
Cu2176    Cu2177   2.404       .  S
C2180      C2198   1.462       .  S
C2181      C2310   1.465       .  S
O2182      C2192   1.254       .  A
O2183      C2193   1.254       .  A
O2183     Cu2190   1.935       .  S
O2184      C2194   1.295       .  A
O2185      C2195   1.295       .  A
O2185     Cu2190   2.022       .  S
O2186      C2195   1.254       .  A
O2186     Cu2191   1.934       .  S
O2187      C2194   1.254       .  A
O2188      C2193   1.295       .  A
O2188     Cu2191   2.022       .  S
O2189      C2192   1.295       .  A
Cu2190    Cu2191   2.405       .  S
C2193      C2207   1.457       .  S
C2194      C2418   1.458       .  S
C2195      C2200   1.456       .  S
C2196      C2197   1.426       .  A
C2196      C2201   1.421       .  A
C2197      C2198   1.421       .  A
C2197      H2202   1.082       .  S
C2198      C2199   1.363       .  A
C2199      C2200   1.363       .  A
C2200      C2201   1.418       .  A
C2201      H2204   1.083       .  S
C2205      C2463   1.507       .  S
C2205      C2206   1.421       .  A
C2205      C2210   1.426       .  A
C2206      C2207   1.418       .  A
C2206      H2211   1.083       .  S
C2207      C2208   1.362       .  A
C2208      C2209   1.363       .  A
C2208      H2212   1.089       .  S
C2209      C2210   1.422       .  A
C2209      C2279   1.462       .  S
C2210      H2213   1.082       .  S
C2214      C2478   1.506       .  S
C2214      C2215   1.426       .  A
C2214      C2219   1.421       .  A
C2215      C2216   1.421       .  A
C2215      H2220   1.082       .  S
C2216      C2217   1.364       .  A
C2216      C2415   1.462       .  S
C2217      C2218   1.363       .  A
C2217      H2221   1.089       .  S
C2218      C2219   1.418       .  A
C2218      C2233   1.456       .  S
C2219      H2222   1.083       .  S
O2223      C2233   1.295       .  A
O2223     Cu2231   2.022       .  S
O2224      C2234   1.295       .  A
O2224     Cu3239   2.023       .  S
O2225      C2235   1.254       .  A
O2225     Cu3239   1.935       .  S
O2226      C2236   1.254       .  A
O2226     Cu2231   1.934       .  S
O2227      C2236   1.295       .  A
O2227     Cu2232   2.023       .  S
O2228      C2235   1.295       .  A
O2228     Cu3240   2.022       .  S
O2229      C2234   1.254       .  A
O2229     Cu3240   1.935       .  S
O2230      C2233   1.254       .  A
O2230     Cu2232   1.934       .  S
Cu2231     O3232   2.023   1_545  S
Cu2231     O3233   1.935   1_545  S
Cu2231    Cu2232   2.405       .  S
Cu2232     O3236   2.022   1_545  S
Cu2232     O3237   1.935   1_545  S
C2235      C2363   1.457       .  S
C2236      C2253   1.457       .  S
O2237      C2247   1.254       .  A
O2237     Cu3253   1.935       .  S
O2238      C2248   1.254       .  A
O2238     Cu2245   1.934       .  S
O2239      C2249   1.295       .  A
O2239     Cu2245   2.023       .  S
O2240      C2250   1.295       .  A
O2240     Cu3253   2.022       .  S
O2241      C2250   1.254       .  A
O2241     Cu3254   1.935       .  S
O2242      C2249   1.254       .  A
O2242     Cu2246   1.934       .  S
O2243      C2248   1.295       .  A
O2243     Cu2246   2.022       .  S
O2244      C2247   1.295       .  A
O2244     Cu3254   2.023       .  S
Cu2245     O3245   1.935   1_545  S
Cu2245     O3248   2.022   1_545  S
Cu2245    Cu2246   2.405       .  S
Cu2246     O3249   1.935   1_545  S
Cu2246     O3252   2.023   1_545  S
C2248      C2264   1.456       .  S
C2249      C2255   1.457       .  S
C2250      C2397   1.457       .  S
C2251      C2252   1.422       .  A
C2251      C2256   1.422       .  A
C2252      C2253   1.419       .  A
C2252      H2257   1.083       .  S
C2253      C2254   1.363   1_545  A
C2254      C2255   1.363   1_565  A
C2254      H3266   1.089       .  S
C2255      C2256   1.419       .  A
C2256      H2259   1.083       .  S
H2258      C3262   1.089       .  S
C2260      C2466   1.506       .  S
C2260      C2261   1.426       .  A
C2260      C2265   1.421       .  A
C2261      C2262   1.421       .  A
C2261      H2266   1.082       .  S
C2262      C2263   1.363       .  A
C2262      C2336   1.462       .  S
C2263      C2264   1.363       .  A
C2263      H2267   1.089       .  S
C2264      C2265   1.418       .  A
C2265      H2268   1.083       .  S
O2269      C2279   1.296       .  A
O2269     Cu2781   2.032       .  S
O2270      C2280   1.296       .  A
O2270     Cu2277   2.030       .  S
O2271      C2281   1.255       .  A
O2271     Cu2781   1.942       .  S
O2272      C2282   1.254       .  A
O2272     Cu2277   1.941       .  S
O2273      C2282   1.296       .  A
O2273     Cu2278   2.030       .  S
O2274      C2281   1.296       .  A
O2274     Cu2782   2.032       .  S
O2275      C2280   1.255       .  A
O2275     Cu2278   1.941       .  S
O2276      C2279   1.255       .  A
O2276     Cu2782   1.942       .  S
Cu2277     O2773   2.032   1_554  S
Cu2277     O2775   1.942   1_554  S
Cu2277    Cu2278   2.404       .  S
Cu2278     O2778   2.032   1_554  S
Cu2278     O2780   1.942   1_554  S
C2280      C2317   1.462       .  S
C2281      C2287   1.463       .  S
C2282      C2454   1.461       .  S
C2283      C2284   1.427       .  A
C2283      C2288   1.426       .  A
C2284      C2285   1.423       .  A
C2284      H2289   1.083       .  S
C2285      C2286   1.363       .  A
C2286      C2287   1.363       .  A
C2286      H2794   1.089       .  S
C2287      C2288   1.422       .  A
C2288      H2291   1.083       .  S
H2290      C2790   1.089       .  S
O2292      C2302   1.254       .  A
O2292     Cu2300   1.941       .  S
O2293      C2303   1.255       .  A
O2294      C2304   1.296       .  A
O2294     Cu2300   2.030       .  S
O2295      C2305   1.296       .  A
O2296      C2305   1.255       .  A
O2297      C2304   1.255       .  A
O2297     Cu2301   1.941       .  S
O2298      C2303   1.296       .  A
O2299      C2302   1.296       .  A
O2299     Cu2301   2.030       .  S
Cu2300    Cu2301   2.404       .  S
C2302      C2436   1.461       .  S
C2303      C2308   1.463       .  S
C2304      C2319   1.462       .  S
C2306      C2307   1.426       .  A
C2306      C2311   1.427       .  A
C2307      C2308   1.422       .  A
C2307      H2312   1.083       .  S
C2308      C2309   1.363   1_655  A
C2309      C2310   1.363   1_455  A
C2310      C2311   1.423       .  A
C2311      H2314   1.083       .  S
C2315      C2499   1.511       .  S
C2315      C2316   1.426       .  A
C2315      C2320   1.426       .  A
C2316      C2317   1.422       .  A
C2316      H2321   1.083       .  S
C2317      C2318   1.363       .  A
C2318      C2319   1.363       .  A
C2318      H2322   1.089       .  S
C2319      C2320   1.422       .  A
C2320      H2323   1.083       .  S
O2324      C2334   1.254       .  A
O2324     Cu2836   1.931       .  S
O2325      C2335   1.253       .  A
O2325     Cu2332   1.930   1_554  S
O2326      C2336   1.296       .  A
O2326     Cu2836   2.028       .  S
O2327      C2337   1.296       .  A
O2327     Cu2332   2.029   1_554  S
O2328      C2337   1.256       .  A
O2328     Cu2333   1.947   1_554  S
O2329      C2336   1.255       .  A
O2329     Cu2837   1.944       .  S
O2330      C2335   1.295       .  A
O2330     Cu2333   2.025   1_554  S
O2331      C2334   1.295       .  A
O2331     Cu2837   2.027       .  S
Cu2332     O2828   1.931       .  S
Cu2332     O2830   2.028       .  S
Cu2332    Cu2333   2.404       .  S
Cu2333     O2833   1.944       .  S
Cu2333     O2835   2.027       .  S
C2334      C2342   1.457       .  S
C2335      C2456   1.456       .  S
C2337      C2374   1.465       .  S
C2338      C2339   1.422       .  A
C2338      C2343   1.422       .  A
C2339      C2340   1.420       .  A
C2339      H2344   1.083       .  S
C2340      C2341   1.362       .  A
C2341      C2342   1.362       .  A
C2341      H2849   1.089       .  S
C2342      C2343   1.419       .  A
C2343      H2346   1.083       .  S
H2345      C2845   1.089       .  S
O2347      C2357   1.255       .  A
O2347     Cu2355   1.942       .  S
O2348      C2358   1.254       .  A
O2348     Cu3363   1.941       .  S
O2349      C2359   1.296       .  A
O2349     Cu3363   2.032       .  S
O2350      C2360   1.296       .  A
O2350     Cu2355   2.030       .  S
O2351      C2360   1.255       .  A
O2351     Cu2356   1.941       .  S
O2352      C2359   1.255       .  A
O2352     Cu3364   1.942       .  S
O2353      C2358   1.296       .  A
O2353     Cu3364   2.030       .  S
O2354      C2357   1.296       .  A
O2354     Cu2356   2.032       .  S
Cu2355     O3356   1.941   1_545  S
Cu2355     O3357   2.032   1_545  S
Cu2355    Cu2356   2.404       .  S
Cu2356     O3360   1.942   1_545  S
Cu2356     O3361   2.030   1_545  S
C2357      C2372   1.463       .  S
C2359      C2365   1.462       .  S
C2360      C2447   1.462       .  S
C2361      C2362   1.421       .  A
C2361      C2366   1.426       .  A
C2362      C2363   1.418       .  A
C2362      H2367   1.083       .  S
C2363      C3372   1.362       .  A
C2364      C3371   1.362   1_545  A
C2364      C3373   1.363   1_545  A
C2364      H2368   1.089       .  S
C2365      C3372   1.363       .  A
C2365      C2366   1.422       .  A
C2366      H2369   1.082       .  S
C2370      C2475   1.514       .  S
C2370      C2371   1.426       .  A
C2370      C2375   1.427       .  A
C2371      C2372   1.422       .  A
C2371      H2376   1.083       .  S
C2372      C2373   1.363       .  A
C2373      C2374   1.363       .  A
C2373      H2377   1.089       .  S
C2374      C2375   1.423       .  A
C2375      H2378   1.083       .  S
O2379      C2389   1.255       .  A
O2379     Cu2387   1.942       .  S
O2380      C2390   1.254       .  A
O2380     Cu3395   1.941       .  S
O2381      C2391   1.296       .  A
O2381     Cu2387   2.030       .  S
O2382      C2392   1.296       .  A
O2382     Cu3395   2.032       .  S
O2383      C2392   1.255       .  A
O2383     Cu3396   1.942       .  S
O2384      C2391   1.255       .  A
O2384     Cu2388   1.941       .  S
O2385      C2390   1.296       .  A
O2385     Cu3396   2.030       .  S
O2386      C2389   1.296       .  A
O2386     Cu2388   2.033       .  S
Cu2387     O3388   1.941   1_545  S
Cu2387     O3390   2.032   1_545  S
Cu2387    Cu2388   2.404       .  S
Cu2388     O3391   1.942   1_545  S
Cu2388     O3393   2.030   1_545  S
C2389      C2427   1.463       .  S
C2391      C2445   1.462       .  S
C2392      C2395   1.462       .  S
C2393      C2394   1.426       .  A
C2393      C2398   1.421       .  A
C2394      C2395   1.422       .  A
C2394      H2399   1.082       .  S
C2395      C3404   1.363       .  A
C2396      C3403   1.363   1_545  A
C2396      C3405   1.362   1_545  A
C2396      H2400   1.089       .  S
C2397      C3404   1.362       .  A
C2397      C2398   1.418       .  A
C2398      H2401   1.083       .  S
O2402      C2412   1.295       .  A
O2402     Cu2410   2.025       .  S
O2403      C2413   1.295       .  A
O2404      C2414   1.256       .  A
O2404     Cu2410   1.947       .  S
O2405      C2415   1.255       .  A
O2406      C2415   1.296       .  A
O2407      C2414   1.296       .  A
O2407     Cu2411   2.029       .  S
O2408      C2413   1.254       .  A
O2409      C2412   1.253       .  A
O2409     Cu2411   1.930       .  S
Cu2410    Cu2411   2.404       .  S
C2412      C2438   1.456       .  S
C2413      C2420   1.457       .  S
C2414      C2429   1.465       .  S
C2416      C2417   1.422       .  A
C2416      C2421   1.422       .  A
C2417      C2418   1.420       .  A
C2417      H2422   1.083       .  S
C2418      C2419   1.362   1_655  A
C2419      C2420   1.362   1_455  A
C2420      C2421   1.419       .  A
C2421      H2424   1.083       .  S
C2425      C2468   1.514       .  S
C2425      C2426   1.426       .  A
C2425      C2430   1.427       .  A
C2426      C2427   1.422       .  A
C2426      H2431   1.083       .  S
C2427      C2428   1.363       .  A
C2428      C2429   1.363       .  A
C2428      H2432   1.089       .  S
C2429      C2430   1.423       .  A
C2430      H2433   1.083       .  S
C2434      C2435   1.426       .  A
C2434      C2439   1.421       .  A
C2435      C2436   1.421       .  A
C2435      H2440   1.082       .  S
C2436      C2437   1.363       .  A
C2437      C2438   1.362       .  A
C2438      C2439   1.418       .  A
C2439      H2442   1.083       .  S
C2443      C2444   1.426       .  A
C2443      C2448   1.426       .  A
C2444      C2445   1.422       .  A
C2444      H2449   1.083       .  S
C2445      C2446   1.363   1_545  A
C2446      C2447   1.363   1_565  A
C2446      H3458   1.089       .  S
C2447      C2448   1.422       .  A
C2448      H2451   1.083       .  S
H2450      C3454   1.089       .  S
C2452      C2453   1.426       .  A
C2452      C2457   1.421       .  A
C2453      C2454   1.421       .  A
C2453      H2458   1.082       .  S
C2454      C2455   1.363   1_554  A
C2455      C2456   1.362   1_556  A
C2455      H2963   1.089       .  S
C2456      C2457   1.418       .  A
C2457      H2460   1.083       .  S
H2459      C2959   1.089       .  S
C2461      C2462   1.556       .  S
C2461      C2467   1.557       .  S
C2461      C2465   1.555       .  S
C2461      C2514   1.597       .  S
C2462      H2469   1.086       .  S
C2462      C2463   1.377       .  D
C2463      C2464   1.544       .  S
C2464      C2468   1.551       .  S
C2464      C2466   1.544       .  S
C2464      H2470   1.111       .  S
C2465      H2471   1.086       .  S
C2465      C2466   1.376       .  D
C2467      H2472   1.085       .  S
C2467      C2468   1.388       .  D
C2473      C2474   1.557       .  S
C2473      C2479   1.556       .  S
C2473      C2477   1.555       .  S
C2473      C2516   1.597       .  S
C2474      H2481   1.085       .  S
C2474      C2475   1.388       .  D
C2475      C2476   1.551       .  S
C2476      C2480   1.544       .  S
C2476      C2478   1.544       .  S
C2476      H2482   1.111       .  S
C2477      H2483   1.086       .  S
C2477      C2478   1.376       .  D
C2479      H2484   1.086       .  S
C2479      C2480   1.377       .  D
C2485      C2486   1.552       .  S
C2485      C2491   1.553       .  S
C2485      C2489   1.553       .  S
C2485      C2509   1.620       .  S
C2486      H2493   1.086       .  S
C2486      C2487   1.377       .  D
C2487      C2488   1.546       .  S
C2488      C2492   1.547       .  S
C2488      C2490   1.547       .  S
C2488      H2494   1.111       .  S
C2489      H2495   1.086       .  S
C2489      C2490   1.378       .  D
C2491      H2496   1.086       .  S
C2491      C2492   1.378       .  D
C2497      C2498   1.555       .  S
C2497      C2503   1.555       .  S
C2497      C2501   1.555       .  S
C2497      C2511   1.593       .  S
C2498      H2505   1.085       .  S
C2498      C2499   1.387       .  D
C2499      C2500   1.550       .  S
C2500      C2504   1.544       .  S
C2500      C2502   1.544       .  S
C2500      H2506   1.111       .  S
C2501      H2507   1.086       .  S
C2501      C2502   1.376       .  D
C2503      H2508   1.086       .  S
C2503      C2504   1.376       .  D
C2509      C2510   1.543       .  S
C2509      C2515   1.544       .  S
C2509      C2513   1.544       .  S
C2510      H2517   1.086       .  S
C2510      C2511   1.379       .  D
C2511      C2512   1.597       .  S
C2512      C2516   1.598       .  S
C2512      C2514   1.598       .  S
C2512      H2518   1.107       .  S
C2513      H2519   1.086       .  S
C2513      C2514   1.380       .  D
C2515      H2520   1.086       .  S
C2515      C2516   1.380       .  D
C2521      C2522   1.555       .  S
C2521      C2527   1.555       .  S
C2521      C2525   1.555       .  S
C2521      C2571   1.593       .  S
C2522      H2529   1.086       .  S
C2522      C2523   1.376       .  D
C2523      C2524   1.544       .  S
C2523      C2938   1.505       .  S
C2524      C2528   1.550       .  S
C2524      C2526   1.544       .  S
C2524      H2530   1.111       .  S
C2525      H2531   1.086       .  S
C2525      C2526   1.376       .  D
C2526      C2956   1.505       .  S
C2527      H2532   1.085   1_545  S
C2527      C2528   1.387       .  D
C2528      C2947   1.511       .  S
C2533      C2534   1.553       .  S
C2533      C2539   1.552       .  S
C2533      C2537   1.553       .  S
C2533      C2569   1.620       .  S
C2534      H2541   1.086   1_655  S
C2534      C2535   1.378       .  D
C2535      C2536   1.547       .  S
C2535      C2920   1.505       .  S
C2536      C2540   1.546       .  S
C2536      C2538   1.547       .  S
C2536      H2542   1.111       .  S
C2537      H2543   1.086   1_556  S
C2537      C2538   1.378       .  D
C2538      C2842   1.505       .  S
C2539      H2544   1.086       .  S
C2539      C2540   1.377       .  D
C2540      C2755   1.504       .  S
C2545      C2546   1.557       .  S
C2545      C2551   1.556       .  S
C2545      C2549   1.555       .  S
C2545      C2576   1.597       .  S
C2546      C2547   1.388       .  D
C2547      C2548   1.551       .  S
C2547      C2810   1.514       .  S
C2548      C2552   1.544       .  S
C2548      C2550   1.544       .  S
C2548      H2554   1.111       .  S
C2549      H2555   1.086       .  S
C2549      C2550   1.376       .  D
C2550      C2645   1.506       .  S
C2551      H3564   1.086       .  S
C2551      C2552   1.377       .  D
C2552      C2865   1.507       .  S
H2556      C3559   1.086   1_545  S
C2557      C2558   1.556       .  S
C2557      C2563   1.557       .  S
C2557      C2561   1.555       .  S
C2557      C2574   1.597       .  S
C2558      H3573   1.086       .  S
C2558      C2559   1.377       .  D
C2559      C2560   1.544       .  S
C2559      C2897   1.507       .  S
C2560      C2564   1.551       .  S
C2560      C2562   1.544       .  S
C2560      H2566   1.111       .  S
C2561      H2567   1.086       .  S
C2561      C2562   1.376       .  D
C2562      C2700   1.506       .  S
C2563      C2564   1.388       .  D
C2564      C2787   1.514       .  S
H2565      C3566   1.086   1_545  S
C2570      H2577   1.086       .  S
C2570      C2571   1.379       .  D
C2571      C3580   1.597   1_545  S
C2572      C3579   1.597       .  S
C2572      H2578   1.107       .  S
C2573      H2579   1.086       .  S
C2573      C3582   1.380   1_545  D
C2574      C3581   1.380       .  D
C2575      H2580   1.086       .  S
C2575      C3584   1.380   1_545  D
C2576      C3583   1.380       .  D
C2581      C2996   1.505       .  S
C2581      C2582   1.422       .  A
C2581      C2586   1.422       .  A
C2582      C2583   1.420       .  A
C2582      H2587   1.083       .  S
C2583      C2584   1.362       .  A
C2583      C2738   1.458       .  S
C2584      C2585   1.362       .  A
C2584      H2588   1.089       .  S
C2585      C2586   1.419       .  A
C2585      C2682   1.457       .  S
C2586      H2589   1.083       .  S
C2590      C2994   1.505       .  S
C2590      C2591   1.422       .  A
C2590      C2595   1.422       .  A
C2591      C2592   1.419       .  A
C2591      H2596   1.083       .  S
C2592      C2593   1.362       .  A
C2592      C2630   1.457       .  S
C2593      C2594   1.362       .  A
C2593      H2597   1.089       .  S
C2594      C2595   1.420       .  A
C2594      C2751   1.458       .  S
C2595      H2598   1.083       .  S
C2599      C3006   1.505       .  S
C2599      C2600   1.426       .  A
C2599      C2604   1.421       .  A
C2600      C2601   1.421       .  A
C2600      H2605   1.082       .  S
C2601      C2602   1.363       .  A
C2601      C2862   1.461       .  S
C2602      C2603   1.362       .  A
C2602      H2606   1.089       .  S
C2603      C2604   1.418       .  A
C2603      C2629   1.456       .  S
C2604      H2607   1.083       .  S
C2608      C2984   1.507       .  S
C2608      C2609   1.426       .  A
C2608      C2613   1.421       .  A
C2609      C2610   1.422       .  A
C2609      H2614   1.082       .  S
C2610      C2611   1.363       .  A
C2610      C2809   1.462       .  S
C2611      C2612   1.363       .  A
C2611      H2615   1.089       .  S
C2612      C2613   1.418       .  A
C2612      C2644   1.457       .  S
C2613      H2616   1.083       .  S
O2617      C2627   1.296       .  A
O2618      C2628   1.296       .  A
O2618     Cu2625   2.028       .  S
O2619      C2629   1.253       .  A
O2619     Cu2625   1.930       .  S
O2620      C2630   1.253       .  A
O2621      C2630   1.295       .  A
O2622      C2629   1.295       .  A
O2622     Cu2626   2.025       .  S
O2623      C2628   1.255       .  A
O2623     Cu2626   1.944       .  S
O2624      C2627   1.256       .  A
Cu2625    Cu2626   2.404       .  S
C2627      C2789   1.465       .  S
C2628      C2649   1.462       .  S
O2631      C2641   1.254       .  A
O2631     Cu2639   1.934       .  S
O2632      C2642   1.254       .  A
O2633      C2643   1.295       .  A
O2634      C2644   1.295       .  A
O2634     Cu2639   2.022       .  S
O2635      C2644   1.254       .  A
O2635     Cu2640   1.935       .  S
O2636      C2643   1.254       .  A
O2637      C2642   1.295       .  A
O2638      C2641   1.295       .  A
O2638     Cu2640   2.022       .  S
Cu2639    Cu2640   2.405       .  S
C2641      C2647   1.456       .  S
C2642      C2844   1.458       .  S
C2643      C2658   1.457       .  S
C2645      C2646   1.421       .  A
C2645      C2650   1.426       .  A
C2646      C2647   1.418       .  A
C2646      H2651   1.083       .  S
C2647      C2648   1.363       .  A
C2648      C2649   1.364       .  A
C2649      C2650   1.421       .  A
C2650      H2653   1.082       .  S
C2654      C2991   1.504       .  S
C2654      C2655   1.422       .  A
C2654      C2659   1.422       .  A
C2655      C2656   1.419       .  A
C2655      H2660   1.083       .  S
C2656      C2657   1.363       .  A
C2656      C2696   1.457       .  S
C2657      C2658   1.363       .  A
C2657      H2661   1.089       .  S
C2658      C2659   1.419       .  A
C2659      H2662   1.083       .  S
C2663      C3008   1.505       .  S
C2663      C2664   1.426       .  A
C2663      C2668   1.421       .  A
C2664      C2665   1.421       .  A
C2664      H2669   1.082       .  S
C2665      C2666   1.363       .  A
C2665      C2894   1.461       .  S
C2666      C2667   1.362       .  A
C2666      H2670   1.089       .  S
C2667      C2668   1.418       .  A
C2667      C2683   1.456       .  S
C2668      H2671   1.083       .  S
O2672      C2682   1.254       .  A
O2673      C2683   1.253       .  A
O2673     Cu2680   1.930       .  S
O2674      C2684   1.296       .  A
O2674     Cu2680   2.028       .  S
O2675      C2685   1.296       .  A
O2676      C2685   1.256       .  A
O2677      C2684   1.255       .  A
O2677     Cu2681   1.944       .  S
O2678      C2683   1.295       .  A
O2678     Cu2681   2.025       .  S
O2679      C2682   1.295       .  A
Cu2680    Cu2681   2.404       .  S
C2684      C2702   1.462       .  S
C2685      C2814   1.465       .  S
O2686      C2696   1.254       .  A
O2687      C2697   1.254       .  A
O2687     Cu2694   1.935       .  S
O2688      C2698   1.295       .  A
O2689      C2699   1.295       .  A
O2689     Cu2694   2.022       .  S
O2690      C2699   1.254       .  A
O2690     Cu2695   1.934       .  S
O2691      C2698   1.254       .  A
O2692      C2697   1.295       .  A
O2692     Cu2695   2.022       .  S
O2693      C2696   1.295       .  A
Cu2694    Cu2695   2.405       .  S
C2697      C2711   1.457       .  S
C2698      C2922   1.458       .  S
C2699      C2704   1.456       .  S
C2700      C2701   1.426       .  A
C2700      C2705   1.421       .  A
C2701      C2702   1.421       .  A
C2701      H2706   1.082       .  S
C2702      C2703   1.363       .  A
C2703      C2704   1.363       .  A
C2704      C2705   1.418       .  A
C2705      H2708   1.083       .  S
C2709      C2967   1.507       .  S
C2709      C2710   1.421       .  A
C2709      C2714   1.426       .  A
C2710      C2711   1.418       .  A
C2710      H2715   1.083       .  S
C2711      C2712   1.362       .  A
C2712      C2713   1.363       .  A
C2712      H2716   1.089       .  S
C2713      C2714   1.422       .  A
C2713      C2783   1.462       .  S
C2714      H2717   1.082       .  S
C2718      C2982   1.506       .  S
C2718      C2719   1.426       .  A
C2718      C2723   1.421       .  A
C2719      C2720   1.421       .  A
C2719      H2724   1.082       .  S
C2720      C2721   1.364       .  A
C2720      C2919   1.462       .  S
C2721      C2722   1.363       .  A
C2721      H2725   1.089       .  S
C2722      C2723   1.418       .  A
C2722      C2737   1.456       .  S
C2723      H2726   1.083       .  S
O2727      C2737   1.295       .  A
O2727     Cu2735   2.022       .  S
O2728      C2738   1.295       .  A
O2728     Cu3743   2.023       .  S
O2729      C2739   1.254       .  A
O2729     Cu3743   1.935       .  S
O2730      C2740   1.254       .  A
O2730     Cu2735   1.934       .  S
O2731      C2740   1.295       .  A
O2731     Cu2736   2.023       .  S
O2732      C2739   1.295       .  A
O2732     Cu3744   2.022       .  S
O2733      C2738   1.254       .  A
O2733     Cu3744   1.935       .  S
O2734      C2737   1.254       .  A
O2734     Cu2736   1.934       .  S
Cu2735     O3736   2.023   1_545  S
Cu2735     O3737   1.935   1_545  S
Cu2735    Cu2736   2.405       .  S
Cu2736     O3740   2.022   1_545  S
Cu2736     O3741   1.935   1_545  S
C2739      C2867   1.457       .  S
C2740      C2757   1.457       .  S
O2741      C2751   1.254       .  A
O2741     Cu3757   1.935       .  S
O2742      C2752   1.254       .  A
O2742     Cu2749   1.934       .  S
O2743      C2753   1.295       .  A
O2743     Cu2749   2.023       .  S
O2744      C2754   1.295       .  A
O2744     Cu3757   2.022       .  S
O2745      C2754   1.254       .  A
O2745     Cu3758   1.935       .  S
O2746      C2753   1.254       .  A
O2746     Cu2750   1.934       .  S
O2747      C2752   1.295       .  A
O2747     Cu2750   2.022       .  S
O2748      C2751   1.295       .  A
O2748     Cu3758   2.023       .  S
Cu2749     O3749   1.935   1_545  S
Cu2749     O3752   2.022   1_545  S
Cu2749    Cu2750   2.405       .  S
Cu2750     O3753   1.935   1_545  S
Cu2750     O3756   2.023   1_545  S
C2752      C2768   1.456       .  S
C2753      C2759   1.457       .  S
C2754      C2901   1.457       .  S
C2755      C2756   1.422       .  A
C2755      C2760   1.422       .  A
C2756      C2757   1.419       .  A
C2756      H2761   1.083       .  S
C2757      C2758   1.363   1_545  A
C2758      C2759   1.363   1_565  A
C2758      H3770   1.089       .  S
C2759      C2760   1.419       .  A
C2760      H2763   1.083       .  S
H2762      C3766   1.089       .  S
C2764      C2970   1.506       .  S
C2764      C2765   1.426       .  A
C2764      C2769   1.421       .  A
C2765      C2766   1.421       .  A
C2765      H2770   1.082       .  S
C2766      C2767   1.363       .  A
C2766      C2840   1.462       .  S
C2767      C2768   1.363       .  A
C2767      H2771   1.089       .  S
C2768      C2769   1.418       .  A
C2769      H2772   1.083       .  S
O2773      C2783   1.296       .  A
O2774      C2784   1.296       .  A
O2774     Cu2781   2.030       .  S
O2775      C2785   1.255       .  A
O2776      C2786   1.254       .  A
O2776     Cu2781   1.941       .  S
O2777      C2786   1.296       .  A
O2777     Cu2782   2.030       .  S
O2778      C2785   1.296       .  A
O2779      C2784   1.255       .  A
O2779     Cu2782   1.941       .  S
O2780      C2783   1.255       .  A
Cu2781    Cu2782   2.404       .  S
C2784      C2821   1.462       .  S
C2785      C2791   1.463       .  S
C2786      C2958   1.461       .  S
C2787      C2788   1.427       .  A
C2787      C2792   1.426       .  A
C2788      C2789   1.423       .  A
C2788      H2793   1.083       .  S
C2789      C2790   1.363   1_556  A
C2790      C2791   1.363   1_554  A
C2791      C2792   1.422       .  A
C2792      H2795   1.083       .  S
O2796      C2806   1.254       .  A
O2796     Cu2804   1.941       .  S
O2797      C2807   1.255       .  A
O2798      C2808   1.296       .  A
O2798     Cu2804   2.030       .  S
O2799      C2809   1.296       .  A
O2800      C2809   1.255       .  A
O2801      C2808   1.255       .  A
O2801     Cu2805   1.941       .  S
O2802      C2807   1.296       .  A
O2803      C2806   1.296       .  A
O2803     Cu2805   2.030       .  S
Cu2804    Cu2805   2.404       .  S
C2806      C2940   1.461       .  S
C2807      C2812   1.463       .  S
C2808      C2823   1.462       .  S
C2810      C2811   1.426       .  A
C2810      C2815   1.427       .  A
C2811      C2812   1.422       .  A
C2811      H2816   1.083       .  S
C2812      C2813   1.363   1_655  A
C2813      C2814   1.363   1_455  A
C2814      C2815   1.423       .  A
C2815      H2818   1.083       .  S
C2819      C3003   1.511       .  S
C2819      C2820   1.426       .  A
C2819      C2824   1.426       .  A
C2820      C2821   1.422       .  A
C2820      H2825   1.083       .  S
C2821      C2822   1.363       .  A
C2822      C2823   1.363       .  A
C2822      H2826   1.089       .  S
C2823      C2824   1.422       .  A
C2824      H2827   1.083       .  S
O2828      C2838   1.254       .  A
O2829      C2839   1.253       .  A
O2829     Cu2836   1.930       .  S
O2830      C2840   1.296       .  A
O2831      C2841   1.296       .  A
O2831     Cu2836   2.029       .  S
O2832      C2841   1.256       .  A
O2832     Cu2837   1.947       .  S
O2833      C2840   1.255       .  A
O2834      C2839   1.295       .  A
O2834     Cu2837   2.025       .  S
O2835      C2838   1.295       .  A
Cu2836    Cu2837   2.404       .  S
C2838      C2846   1.457       .  S
C2839      C2960   1.456       .  S
C2841      C2878   1.465       .  S
C2842      C2843   1.422       .  A
C2842      C2847   1.422       .  A
C2843      C2844   1.420       .  A
C2843      H2848   1.083       .  S
C2844      C2845   1.362   1_556  A
C2845      C2846   1.362   1_554  A
C2846      C2847   1.419       .  A
C2847      H2850   1.083       .  S
O2851      C2861   1.255       .  A
O2851     Cu2859   1.942       .  S
O2852      C2862   1.254       .  A
O2852     Cu3867   1.941       .  S
O2853      C2863   1.296       .  A
O2853     Cu3867   2.032       .  S
O2854      C2864   1.296       .  A
O2854     Cu2859   2.030       .  S
O2855      C2864   1.255       .  A
O2855     Cu2860   1.941       .  S
O2856      C2863   1.255       .  A
O2856     Cu3868   1.942       .  S
O2857      C2862   1.296       .  A
O2857     Cu3868   2.030       .  S
O2858      C2861   1.296       .  A
O2858     Cu2860   2.032       .  S
Cu2859     O3860   1.941   1_545  S
Cu2859     O3861   2.032   1_545  S
Cu2859    Cu2860   2.404       .  S
Cu2860     O3864   1.942   1_545  S
Cu2860     O3865   2.030   1_545  S
C2861      C2876   1.463       .  S
C2863      C2869   1.462       .  S
C2864      C2951   1.462       .  S
C2865      C2866   1.421       .  A
C2865      C2870   1.426       .  A
C2866      C2867   1.418       .  A
C2866      H2871   1.083       .  S
C2867      C3876   1.362       .  A
C2868      C3875   1.362   1_545  A
C2868      C3877   1.363   1_545  A
C2868      H2872   1.089       .  S
C2869      C3876   1.363       .  A
C2869      C2870   1.422       .  A
C2870      H2873   1.082       .  S
C2874      C2979   1.514       .  S
C2874      C2875   1.426       .  A
C2874      C2879   1.427       .  A
C2875      C2876   1.422       .  A
C2875      H2880   1.083       .  S
C2876      C2877   1.363       .  A
C2877      C2878   1.363       .  A
C2877      H2881   1.089       .  S
C2878      C2879   1.423       .  A
C2879      H2882   1.083       .  S
O2883      C2893   1.255       .  A
O2883     Cu2891   1.942       .  S
O2884      C2894   1.254       .  A
O2884     Cu3899   1.941       .  S
O2885      C2895   1.296       .  A
O2885     Cu2891   2.030       .  S
O2886      C2896   1.296       .  A
O2886     Cu3899   2.032       .  S
O2887      C2896   1.255       .  A
O2887     Cu3900   1.942       .  S
O2888      C2895   1.255       .  A
O2888     Cu2892   1.941       .  S
O2889      C2894   1.296       .  A
O2889     Cu3900   2.030       .  S
O2890      C2893   1.296       .  A
O2890     Cu2892   2.033       .  S
Cu2891     O3892   1.941   1_545  S
Cu2891     O3894   2.032   1_545  S
Cu2891    Cu2892   2.404       .  S
Cu2892     O3895   1.942   1_545  S
Cu2892     O3897   2.030   1_545  S
C2893      C2931   1.463       .  S
C2895      C2949   1.462       .  S
C2896      C2899   1.462       .  S
C2897      C2898   1.426       .  A
C2897      C2902   1.421       .  A
C2898      C2899   1.422       .  A
C2898      H2903   1.082       .  S
C2899      C3908   1.363       .  A
C2900      C3907   1.363   1_545  A
C2900      C3909   1.362   1_545  A
C2900      H2904   1.089       .  S
C2901      C3908   1.362       .  A
C2901      C2902   1.418       .  A
C2902      H2905   1.083       .  S
O2906      C2916   1.295       .  A
O2906     Cu2914   2.025       .  S
O2907      C2917   1.295       .  A
O2908      C2918   1.256       .  A
O2908     Cu2914   1.947       .  S
O2909      C2919   1.255       .  A
O2910      C2919   1.296       .  A
O2911      C2918   1.296       .  A
O2911     Cu2915   2.029       .  S
O2912      C2917   1.254       .  A
O2913      C2916   1.253       .  A
O2913     Cu2915   1.930       .  S
Cu2914    Cu2915   2.404       .  S
C2916      C2942   1.456       .  S
C2917      C2924   1.457       .  S
C2918      C2933   1.465       .  S
C2920      C2921   1.422       .  A
C2920      C2925   1.422       .  A
C2921      C2922   1.420       .  A
C2921      H2926   1.083       .  S
C2922      C2923   1.362   1_655  A
C2923      C2924   1.362   1_455  A
C2924      C2925   1.419       .  A
C2925      H2928   1.083       .  S
C2929      C2972   1.514       .  S
C2929      C2930   1.426       .  A
C2929      C2934   1.427       .  A
C2930      C2931   1.422       .  A
C2930      H2935   1.083       .  S
C2931      C2932   1.363       .  A
C2932      C2933   1.363       .  A
C2932      H2936   1.089       .  S
C2933      C2934   1.423       .  A
C2934      H2937   1.083       .  S
C2938      C2939   1.426       .  A
C2938      C2943   1.421       .  A
C2939      C2940   1.421       .  A
C2939      H2944   1.082       .  S
C2940      C2941   1.363       .  A
C2941      C2942   1.362       .  A
C2942      C2943   1.418       .  A
C2943      H2946   1.083       .  S
C2947      C2948   1.426       .  A
C2947      C2952   1.426       .  A
C2948      C2949   1.422       .  A
C2948      H2953   1.083       .  S
C2949      C2950   1.363   1_545  A
C2950      C2951   1.363   1_565  A
C2950      H3962   1.089       .  S
C2951      C2952   1.422       .  A
C2952      H2955   1.083       .  S
H2954      C3958   1.089       .  S
C2956      C2957   1.426       .  A
C2956      C2961   1.421       .  A
C2957      C2958   1.421       .  A
C2957      H2962   1.082       .  S
C2958      C2959   1.363       .  A
C2959      C2960   1.362       .  A
C2960      C2961   1.418       .  A
C2961      H2964   1.083       .  S
C2965      C2966   1.556       .  S
C2965      C2971   1.557       .  S
C2965      C2969   1.555       .  S
C2965      C3018   1.597       .  S
C2966      H2973   1.086       .  S
C2966      C2967   1.377       .  D
C2967      C2968   1.544       .  S
C2968      C2972   1.551       .  S
C2968      C2970   1.544       .  S
C2968      H2974   1.111       .  S
C2969      H2975   1.086       .  S
C2969      C2970   1.376       .  D
C2971      H2976   1.085       .  S
C2971      C2972   1.388       .  D
C2977      C2978   1.557       .  S
C2977      C2983   1.556       .  S
C2977      C2981   1.555       .  S
C2977      C3020   1.597       .  S
C2978      H2985   1.085       .  S
C2978      C2979   1.388       .  D
C2979      C2980   1.551       .  S
C2980      C2984   1.544       .  S
C2980      C2982   1.544       .  S
C2980      H2986   1.111       .  S
C2981      H2987   1.086       .  S
C2981      C2982   1.376       .  D
C2983      H2988   1.086       .  S
C2983      C2984   1.377       .  D
C2989      C2990   1.552       .  S
C2989      C2995   1.553       .  S
C2989      C2993   1.553       .  S
C2989      C3013   1.620       .  S
C2990      H2997   1.086       .  S
C2990      C2991   1.377       .  D
C2991      C2992   1.546       .  S
C2992      C2996   1.547       .  S
C2992      C2994   1.547       .  S
C2992      H2998   1.111       .  S
C2993      H2999   1.086       .  S
C2993      C2994   1.378       .  D
C2995      H3000   1.086       .  S
C2995      C2996   1.378       .  D
C3001      C3002   1.555       .  S
C3001      C3007   1.555       .  S
C3001      C3005   1.555       .  S
C3001      C3015   1.593       .  S
C3002      H3009   1.085       .  S
C3002      C3003   1.387       .  D
C3003      C3004   1.550       .  S
C3004      C3008   1.544       .  S
C3004      C3006   1.544       .  S
C3004      H3010   1.111       .  S
C3005      H3011   1.086       .  S
C3005      C3006   1.376       .  D
C3007      H3012   1.086       .  S
C3007      C3008   1.376       .  D
C3013      C3014   1.543       .  S
C3013      C3019   1.544       .  S
C3013      C3017   1.544       .  S
C3014      H3021   1.086       .  S
C3014      C3015   1.379       .  D
C3015      C3016   1.597       .  S
C3016      C3020   1.598       .  S
C3016      C3018   1.598       .  S
C3016      H3022   1.107       .  S
C3017      H3023   1.086       .  S
C3017      C3018   1.380       .  D
C3019      H3024   1.086       .  S
C3019      C3020   1.380       .  D
C3025      C3026   1.555       .  S
C3025      C3031   1.555       .  S
C3025      C3029   1.555       .  S
C3025      C3075   1.593       .  S
C3026      H3033   1.086       .  S
C3026      C3027   1.376       .  D
C3027      C3028   1.544       .  S
C3027      C3442   1.505       .  S
C3028      C3032   1.550       .  S
C3028      C3030   1.544       .  S
C3028      H3034   1.111       .  S
C3029      H3035   1.086   1_554  S
C3029      C3030   1.376       .  D
C3030      C3460   1.505       .  S
C3031      H3036   1.085       .  S
C3031      C3032   1.387       .  D
C3032      C3451   1.511       .  S
C3037      C3038   1.553       .  S
C3037      C3043   1.552       .  S
C3037      C3041   1.553       .  S
C3037      C3073   1.620       .  S
C3038      H3045   1.086   1_655  S
C3038      C3039   1.378       .  D
C3039      C3040   1.547       .  S
C3039      C3424   1.505       .  S
C3040      C3044   1.546       .  S
C3040      C3042   1.547       .  S
C3040      H3046   1.111       .  S
C3041      H3047   1.086       .  S
C3041      C3042   1.378       .  D
C3042      C3346   1.505       .  S
C3043      H3048   1.086       .  S
C3043      C3044   1.377       .  D
C3044      C3259   1.504       .  S
C3049      C3050   1.557       .  S
C3049      C3055   1.556       .  S
C3049      C3053   1.555       .  S
C3049      C3080   1.597       .  S
C3050      C3051   1.388       .  D
C3051      C3052   1.551       .  S
C3051      C3314   1.514       .  S
C3052      C3056   1.544       .  S
C3052      C3054   1.544       .  S
C3052      H3058   1.111       .  S
C3053      H3059   1.086       .  S
C3053      C3054   1.376       .  D
C3054      C3149   1.506       .  S
C3055      C3056   1.377       .  D
C3056      C3369   1.507       .  S
C3061      C3062   1.556       .  S
C3061      C3067   1.557       .  S
C3061      C3065   1.555       .  S
C3061      C3078   1.597       .  S
C3062      C3063   1.377       .  D
C3063      C3064   1.544       .  S
C3063      C3401   1.507       .  S
C3064      C3068   1.551       .  S
C3064      C3066   1.544       .  S
C3064      H3070   1.111       .  S
C3065      H3071   1.086       .  S
C3065      C3066   1.376       .  D
C3066      C3204   1.506       .  S
C3067      H3576   1.085       .  S
C3067      C3068   1.388       .  D
C3068      C3291   1.514       .  S
H3072      C3571   1.085   1_554  S
C3073      C3583   1.544       .  S
C3074      H3081   1.086       .  S
C3074      C3075   1.379       .  D
C3076      C3582   1.598   1_554  S
C3076      H3082   1.107       .  S
C3077      H3083   1.086       .  S
C3078      C3580   1.598       .  S
C3079      C3577   1.544   1_554  S
C3079      H3084   1.086       .  S
C3085      C3500   1.505       .  S
C3085      C3086   1.422       .  A
C3085      C3090   1.422       .  A
C3086      C3087   1.420       .  A
C3086      H3091   1.083       .  S
C3087      C3088   1.362       .  A
C3087      C3242   1.458       .  S
C3088      C3089   1.362       .  A
C3088      H3092   1.089       .  S
C3089      C3090   1.419       .  A
C3089      C3186   1.457       .  S
C3090      H3093   1.083       .  S
C3094      C3498   1.505       .  S
C3094      C3095   1.422       .  A
C3094      C3099   1.422       .  A
C3095      C3096   1.419       .  A
C3095      H3100   1.083       .  S
C3096      C3097   1.362       .  A
C3096      C3134   1.457       .  S
C3097      C3098   1.362       .  A
C3097      H3101   1.089       .  S
C3098      C3099   1.420       .  A
C3098      C3255   1.458       .  S
C3099      H3102   1.083       .  S
C3103      C3510   1.505       .  S
C3103      C3104   1.426       .  A
C3103      C3108   1.421       .  A
C3104      C3105   1.421       .  A
C3104      H3109   1.082       .  S
C3105      C3106   1.363       .  A
C3105      C3366   1.461       .  S
C3106      C3107   1.362       .  A
C3106      H3110   1.089       .  S
C3107      C3108   1.418       .  A
C3107      C3133   1.456       .  S
C3108      H3111   1.083       .  S
C3112      C3488   1.507       .  S
C3112      C3113   1.426       .  A
C3112      C3117   1.421       .  A
C3113      C3114   1.422       .  A
C3113      H3118   1.082       .  S
C3114      C3115   1.363       .  A
C3114      C3313   1.462       .  S
C3115      C3116   1.363       .  A
C3115      H3119   1.089       .  S
C3116      C3117   1.418       .  A
C3116      C3148   1.457       .  S
C3117      H3120   1.083       .  S
O3121      C3131   1.296       .  A
O3121     Cu3633   2.029       .  S
O3122      C3132   1.296       .  A
O3122     Cu3129   2.028       .  S
O3123      C3133   1.253       .  A
O3123     Cu3129   1.930       .  S
O3124      C3134   1.253       .  A
O3124     Cu3633   1.931       .  S
O3125      C3134   1.295       .  A
O3125     Cu3634   2.027       .  S
O3126      C3133   1.295       .  A
O3126     Cu3130   2.025       .  S
O3127      C3132   1.255       .  A
O3127     Cu3130   1.944       .  S
O3128      C3131   1.256       .  A
O3128     Cu3634   1.947       .  S
Cu3129     O3625   2.029   1_554  S
Cu3129     O3628   1.931   1_554  S
Cu3129    Cu3130   2.404       .  S
Cu3130     O3629   2.027   1_554  S
Cu3130     O3632   1.947   1_554  S
C3131      C3293   1.465       .  S
C3132      C3153   1.462       .  S
O3135      C3145   1.254       .  A
O3135     Cu3143   1.934       .  S
O3136      C3146   1.254       .  A
O3136     Cu3647   1.935       .  S
O3137      C3147   1.295       .  A
O3137     Cu3647   2.023       .  S
O3138      C3148   1.295       .  A
O3138     Cu3143   2.022       .  S
O3139      C3148   1.254       .  A
O3139     Cu3144   1.935       .  S
O3140      C3147   1.254       .  A
O3140     Cu3648   1.934       .  S
O3141      C3146   1.295       .  A
O3141     Cu3648   2.023       .  S
O3142      C3145   1.295       .  A
O3142     Cu3144   2.022       .  S
Cu3143     O3640   1.935   1_554  S
Cu3143     O3641   2.023   1_554  S
Cu3143    Cu3144   2.405       .  S
Cu3144     O3644   1.934   1_554  S
Cu3144     O3645   2.023   1_554  S
C3145      C3151   1.456       .  S
C3146      C3348   1.458       .  S
C3147      C3162   1.457       .  S
C3149      C3150   1.421       .  A
C3149      C3154   1.426       .  A
C3150      C3151   1.418       .  A
C3150      H3155   1.083       .  S
C3151      C3152   1.363   1_554  A
C3152      C3153   1.364   1_556  A
C3152      H3660   1.089       .  S
C3153      C3154   1.421       .  A
C3154      H3157   1.082       .  S
H3156      C3656   1.089       .  S
C3158      C3495   1.504       .  S
C3158      C3159   1.422       .  A
C3158      C3163   1.422       .  A
C3159      C3160   1.419       .  A
C3159      H3164   1.083       .  S
C3160      C3161   1.363       .  A
C3160      C3200   1.457       .  S
C3161      C3162   1.363       .  A
C3161      H3165   1.089       .  S
C3162      C3163   1.419       .  A
C3163      H3166   1.083       .  S
C3167      C3512   1.505       .  S
C3167      C3168   1.426       .  A
C3167      C3172   1.421       .  A
C3168      C3169   1.421       .  A
C3168      H3173   1.082       .  S
C3169      C3170   1.363       .  A
C3169      C3398   1.461       .  S
C3170      C3171   1.362       .  A
C3170      H3174   1.089       .  S
C3171      C3172   1.418       .  A
C3171      C3187   1.456       .  S
C3172      H3175   1.083       .  S
O3176      C3186   1.254       .  A
O3177      C3187   1.253       .  A
O3177     Cu3184   1.930       .  S
O3178      C3188   1.296       .  A
O3178     Cu3184   2.028       .  S
O3179      C3189   1.296       .  A
O3180      C3189   1.256       .  A
O3181      C3188   1.255       .  A
O3181     Cu3185   1.944       .  S
O3182      C3187   1.295       .  A
O3182     Cu3185   2.025       .  S
O3183      C3186   1.295       .  A
Cu3184    Cu3185   2.404       .  S
C3188      C3206   1.462       .  S
C3189      C3318   1.465       .  S
O3190      C3200   1.254       .  A
O3191      C3201   1.254       .  A
O3191     Cu3198   1.935       .  S
O3192      C3202   1.295       .  A
O3193      C3203   1.295       .  A
O3193     Cu3198   2.022       .  S
O3194      C3203   1.254       .  A
O3194     Cu3199   1.934       .  S
O3195      C3202   1.254       .  A
O3196      C3201   1.295       .  A
O3196     Cu3199   2.022       .  S
O3197      C3200   1.295       .  A
Cu3198    Cu3199   2.405       .  S
C3201      C3215   1.457       .  S
C3202      C3426   1.458       .  S
C3203      C3208   1.456       .  S
C3204      C3205   1.426       .  A
C3204      C3209   1.421       .  A
C3205      C3206   1.421       .  A
C3205      H3210   1.082       .  S
C3206      C3207   1.363       .  A
C3207      C3208   1.363       .  A
C3208      C3209   1.418       .  A
C3209      H3212   1.083       .  S
C3213      C3471   1.507       .  S
C3213      C3214   1.421       .  A
C3213      C3218   1.426       .  A
C3214      C3215   1.418       .  A
C3214      H3219   1.083       .  S
C3215      C3216   1.362       .  A
C3216      C3217   1.363       .  A
C3216      H3220   1.089       .  S
C3217      C3218   1.422       .  A
C3217      C3287   1.462       .  S
C3218      H3221   1.082       .  S
C3222      C3486   1.506       .  S
C3222      C3223   1.426       .  A
C3222      C3227   1.421       .  A
C3223      C3224   1.421       .  A
C3223      H3228   1.082       .  S
C3224      C3225   1.364       .  A
C3224      C3423   1.462       .  S
C3225      C3226   1.363       .  A
C3225      H3229   1.089       .  S
C3226      C3227   1.418       .  A
C3226      C3241   1.456       .  S
C3227      H3230   1.083       .  S
O3231      C3241   1.295       .  A
O3231     Cu3239   2.022       .  S
O3232      C3242   1.295       .  A
O3233      C3243   1.254       .  A
O3234      C3244   1.254       .  A
O3234     Cu3239   1.934       .  S
O3235      C3244   1.295       .  A
O3235     Cu3240   2.023       .  S
O3236      C3243   1.295       .  A
O3237      C3242   1.254       .  A
O3238      C3241   1.254       .  A
O3238     Cu3240   1.934       .  S
Cu3239    Cu3240   2.405       .  S
C3243      C3371   1.457       .  S
C3244      C3261   1.457       .  S
O3245      C3255   1.254       .  A
O3246      C3256   1.254       .  A
O3246     Cu3253   1.934       .  S
O3247      C3257   1.295       .  A
O3247     Cu3253   2.023       .  S
O3248      C3258   1.295       .  A
O3249      C3258   1.254       .  A
O3250      C3257   1.254       .  A
O3250     Cu3254   1.934       .  S
O3251      C3256   1.295       .  A
O3251     Cu3254   2.022       .  S
O3252      C3255   1.295       .  A
Cu3253    Cu3254   2.405       .  S
C3256      C3272   1.456       .  S
C3257      C3263   1.457       .  S
C3258      C3405   1.457       .  S
C3259      C3260   1.422       .  A
C3259      C3264   1.422       .  A
C3260      C3261   1.419       .  A
C3260      H3265   1.083       .  S
C3261      C3262   1.363       .  A
C3262      C3263   1.363       .  A
C3263      C3264   1.419       .  A
C3264      H3267   1.083       .  S
C3268      C3474   1.506       .  S
C3268      C3269   1.426       .  A
C3268      C3273   1.421       .  A
C3269      C3270   1.421       .  A
C3269      H3274   1.082       .  S
C3270      C3271   1.363       .  A
C3270      C3344   1.462       .  S
C3271      C3272   1.363       .  A
C3271      H3275   1.089       .  S
C3272      C3273   1.418       .  A
C3273      H3276   1.083       .  S
O3277      C3287   1.296       .  A
O3277     Cu3789   2.032       .  S
O3278      C3288   1.296       .  A
O3278     Cu3285   2.030       .  S
O3279      C3289   1.255       .  A
O3279     Cu3789   1.942       .  S
O3280      C3290   1.254       .  A
O3280     Cu3285   1.941       .  S
O3281      C3290   1.296       .  A
O3281     Cu3286   2.030       .  S
O3282      C3289   1.296       .  A
O3282     Cu3790   2.032       .  S
O3283      C3288   1.255       .  A
O3283     Cu3286   1.941       .  S
O3284      C3287   1.255       .  A
O3284     Cu3790   1.942       .  S
Cu3285     O3781   2.032   1_554  S
Cu3285     O3783   1.942   1_554  S
Cu3285    Cu3286   2.404       .  S
Cu3286     O3786   2.032   1_554  S
Cu3286     O3788   1.942   1_554  S
C3288      C3325   1.462       .  S
C3289      C3295   1.463       .  S
C3290      C3462   1.461       .  S
C3291      C3292   1.427       .  A
C3291      C3296   1.426       .  A
C3292      C3293   1.423       .  A
C3292      H3297   1.083       .  S
C3293      C3294   1.363       .  A
C3294      C3295   1.363       .  A
C3294      H3802   1.089       .  S
C3295      C3296   1.422       .  A
C3296      H3299   1.083       .  S
H3298      C3798   1.089       .  S
O3300      C3310   1.254       .  A
O3300     Cu3308   1.941       .  S
O3301      C3311   1.255       .  A
O3302      C3312   1.296       .  A
O3302     Cu3308   2.030       .  S
O3303      C3313   1.296       .  A
O3304      C3313   1.255       .  A
O3305      C3312   1.255       .  A
O3305     Cu3309   1.941       .  S
O3306      C3311   1.296       .  A
O3307      C3310   1.296       .  A
O3307     Cu3309   2.030       .  S
Cu3308    Cu3309   2.404       .  S
C3310      C3444   1.461       .  S
C3311      C3316   1.463       .  S
C3312      C3327   1.462       .  S
C3314      C3315   1.426       .  A
C3314      C3319   1.427       .  A
C3315      C3316   1.422       .  A
C3315      H3320   1.083       .  S
C3316      C3317   1.363   1_655  A
C3317      C3318   1.363   1_455  A
C3318      C3319   1.423       .  A
C3319      H3322   1.083       .  S
C3323      C3507   1.511       .  S
C3323      C3324   1.426       .  A
C3323      C3328   1.426       .  A
C3324      C3325   1.422       .  A
C3324      H3329   1.083       .  S
C3325      C3326   1.363       .  A
C3326      C3327   1.363       .  A
C3326      H3330   1.089       .  S
C3327      C3328   1.422       .  A
C3328      H3331   1.083       .  S
O3332      C3342   1.254       .  A
O3332     Cu3844   1.931       .  S
O3333      C3343   1.253       .  A
O3333     Cu3340   1.930   1_554  S
O3334      C3344   1.296       .  A
O3334     Cu3844   2.028       .  S
O3335      C3345   1.296       .  A
O3335     Cu3340   2.029   1_554  S
O3336      C3345   1.256       .  A
O3336     Cu3341   1.947   1_554  S
O3337      C3344   1.255       .  A
O3337     Cu3845   1.944       .  S
O3338      C3343   1.295       .  A
O3338     Cu3341   2.025   1_554  S
O3339      C3342   1.295       .  A
O3339     Cu3845   2.027       .  S
Cu3340     O3836   1.931       .  S
Cu3340     O3838   2.028       .  S
Cu3340    Cu3341   2.404       .  S
Cu3341     O3841   1.944       .  S
Cu3341     O3843   2.027       .  S
C3342      C3350   1.457       .  S
C3343      C3464   1.456       .  S
C3345      C3382   1.465       .  S
C3346      C3347   1.422       .  A
C3346      C3351   1.422       .  A
C3347      C3348   1.420       .  A
C3347      H3352   1.083       .  S
C3348      C3349   1.362       .  A
C3349      C3350   1.362       .  A
C3349      H3857   1.089       .  S
C3350      C3351   1.419       .  A
C3351      H3354   1.083       .  S
H3353      C3853   1.089       .  S
O3355      C3365   1.255       .  A
O3355     Cu3363   1.942       .  S
O3356      C3366   1.254       .  A
O3357      C3367   1.296       .  A
O3358      C3368   1.296       .  A
O3358     Cu3363   2.030       .  S
O3359      C3368   1.255       .  A
O3359     Cu3364   1.941       .  S
O3360      C3367   1.255       .  A
O3361      C3366   1.296       .  A
O3362      C3365   1.296       .  A
O3362     Cu3364   2.032       .  S
Cu3363    Cu3364   2.404       .  S
C3365      C3380   1.463       .  S
C3367      C3373   1.462       .  S
C3368      C3455   1.462       .  S
C3369      C3370   1.421       .  A
C3369      C3374   1.426       .  A
C3370      C3371   1.418       .  A
C3370      H3375   1.083       .  S
C3372      H3376   1.089       .  S
C3373      C3374   1.422       .  A
C3374      H3377   1.082       .  S
C3378      C3483   1.514       .  S
C3378      C3379   1.426       .  A
C3378      C3383   1.427       .  A
C3379      C3380   1.422       .  A
C3379      H3384   1.083       .  S
C3380      C3381   1.363       .  A
C3381      C3382   1.363       .  A
C3381      H3385   1.089       .  S
C3382      C3383   1.423       .  A
C3383      H3386   1.083       .  S
O3387      C3397   1.255       .  A
O3387     Cu3395   1.942       .  S
O3388      C3398   1.254       .  A
O3389      C3399   1.296       .  A
O3389     Cu3395   2.030       .  S
O3390      C3400   1.296       .  A
O3391      C3400   1.255       .  A
O3392      C3399   1.255       .  A
O3392     Cu3396   1.941       .  S
O3393      C3398   1.296       .  A
O3394      C3397   1.296       .  A
O3394     Cu3396   2.033       .  S
Cu3395    Cu3396   2.404       .  S
C3397      C3435   1.463       .  S
C3399      C3453   1.462       .  S
C3400      C3403   1.462       .  S
C3401      C3402   1.426       .  A
C3401      C3406   1.421       .  A
C3402      C3403   1.422       .  A
C3402      H3407   1.082       .  S
C3404      H3408   1.089       .  S
C3405      C3406   1.418       .  A
C3406      H3409   1.083       .  S
O3410      C3420   1.295       .  A
O3410     Cu3418   2.025       .  S
O3411      C3421   1.295       .  A
O3412      C3422   1.256       .  A
O3412     Cu3418   1.947       .  S
O3413      C3423   1.255       .  A
O3414      C3423   1.296       .  A
O3415      C3422   1.296       .  A
O3415     Cu3419   2.029       .  S
O3416      C3421   1.254       .  A
O3417      C3420   1.253       .  A
O3417     Cu3419   1.930       .  S
Cu3418    Cu3419   2.404       .  S
C3420      C3446   1.456       .  S
C3421      C3428   1.457       .  S
C3422      C3437   1.465       .  S
C3424      C3425   1.422       .  A
C3424      C3429   1.422       .  A
C3425      C3426   1.420       .  A
C3425      H3430   1.083       .  S
C3426      C3427   1.362   1_655  A
C3427      C3428   1.362   1_455  A
C3428      C3429   1.419       .  A
C3429      H3432   1.083       .  S
C3433      C3476   1.514       .  S
C3433      C3434   1.426       .  A
C3433      C3438   1.427       .  A
C3434      C3435   1.422       .  A
C3434      H3439   1.083       .  S
C3435      C3436   1.363       .  A
C3436      C3437   1.363       .  A
C3436      H3440   1.089       .  S
C3437      C3438   1.423       .  A
C3438      H3441   1.083       .  S
C3442      C3443   1.426       .  A
C3442      C3447   1.421       .  A
C3443      C3444   1.421       .  A
C3443      H3448   1.082       .  S
C3444      C3445   1.363       .  A
C3445      C3446   1.362       .  A
C3446      C3447   1.418       .  A
C3447      H3450   1.083       .  S
C3451      C3452   1.426       .  A
C3451      C3456   1.426       .  A
C3452      C3453   1.422       .  A
C3452      H3457   1.083       .  S
C3453      C3454   1.363       .  A
C3454      C3455   1.363       .  A
C3455      C3456   1.422       .  A
C3456      H3459   1.083       .  S
C3460      C3461   1.426       .  A
C3460      C3465   1.421       .  A
C3461      C3462   1.421       .  A
C3461      H3466   1.082       .  S
C3462      C3463   1.363   1_554  A
C3463      C3464   1.362   1_556  A
C3463      H3971   1.089       .  S
C3464      C3465   1.418       .  A
C3465      H3468   1.083       .  S
H3467      C3967   1.089       .  S
C3469      C3470   1.556       .  S
C3469      C3475   1.557       .  S
C3469      C3473   1.555       .  S
C3469      C3522   1.597       .  S
C3470      H3477   1.086       .  S
C3470      C3471   1.377       .  D
C3471      C3472   1.544       .  S
C3472      C3476   1.551       .  S
C3472      C3474   1.544       .  S
C3472      H3478   1.111       .  S
C3473      H3479   1.086       .  S
C3473      C3474   1.376       .  D
C3475      H3480   1.085       .  S
C3475      C3476   1.388       .  D
C3481      C3482   1.557       .  S
C3481      C3487   1.556       .  S
C3481      C3485   1.555       .  S
C3481      C3524   1.597       .  S
C3482      H3489   1.085       .  S
C3482      C3483   1.388       .  D
C3483      C3484   1.551       .  S
C3484      C3488   1.544       .  S
C3484      C3486   1.544       .  S
C3484      H3490   1.111       .  S
C3485      H3491   1.086       .  S
C3485      C3486   1.376       .  D
C3487      H3492   1.086       .  S
C3487      C3488   1.377       .  D
C3493      C3494   1.552       .  S
C3493      C3499   1.553       .  S
C3493      C3497   1.553       .  S
C3493      C3517   1.620       .  S
C3494      H3501   1.086       .  S
C3494      C3495   1.377       .  D
C3495      C3496   1.546       .  S
C3496      C3500   1.547       .  S
C3496      C3498   1.547       .  S
C3496      H3502   1.111       .  S
C3497      H3503   1.086       .  S
C3497      C3498   1.378       .  D
C3499      H3504   1.086       .  S
C3499      C3500   1.378       .  D
C3505      C3506   1.555       .  S
C3505      C3511   1.555       .  S
C3505      C3509   1.555       .  S
C3505      C3519   1.593       .  S
C3506      H3513   1.085       .  S
C3506      C3507   1.387       .  D
C3507      C3508   1.550       .  S
C3508      C3512   1.544       .  S
C3508      C3510   1.544       .  S
C3508      H3514   1.111       .  S
C3509      H3515   1.086       .  S
C3509      C3510   1.376       .  D
C3511      H3516   1.086       .  S
C3511      C3512   1.376       .  D
C3517      C3518   1.543       .  S
C3517      C3523   1.544       .  S
C3517      C3521   1.544       .  S
C3518      H3525   1.086       .  S
C3518      C3519   1.379       .  D
C3519      C3520   1.597       .  S
C3520      C3524   1.598       .  S
C3520      C3522   1.598       .  S
C3520      H3526   1.107       .  S
C3521      H3527   1.086       .  S
C3521      C3522   1.380       .  D
C3523      H3528   1.086       .  S
C3523      C3524   1.380       .  D
C3529      C3530   1.555       .  S
C3529      C3535   1.555       .  S
C3529      C3533   1.555       .  S
C3529      C3579   1.593       .  S
C3530      H3537   1.086       .  S
C3530      C3531   1.376       .  D
C3531      C3532   1.544       .  S
C3531      C3946   1.505       .  S
C3532      C3536   1.550       .  S
C3532      C3534   1.544       .  S
C3532      H3538   1.111       .  S
C3533      H3539   1.086       .  S
C3533      C3534   1.376       .  D
C3534      C3964   1.505       .  S
C3535      H3540   1.085       .  S
C3535      C3536   1.387       .  D
C3536      C3955   1.511       .  S
C3541      C3542   1.553       .  S
C3541      C3547   1.552       .  S
C3541      C3545   1.553       .  S
C3541      C3577   1.620       .  S
C3542      H3549   1.086   1_655  S
C3542      C3543   1.378       .  D
C3543      C3544   1.547       .  S
C3543      C3928   1.505       .  S
C3544      C3548   1.546       .  S
C3544      C3546   1.547       .  S
C3544      H3550   1.111       .  S
C3545      H3551   1.086   1_556  S
C3545      C3546   1.378       .  D
C3546      C3850   1.505       .  S
C3547      H3552   1.086       .  S
C3547      C3548   1.377       .  D
C3548      C3763   1.504       .  S
C3553      C3554   1.557       .  S
C3553      C3559   1.556       .  S
C3553      C3557   1.555       .  S
C3553      C3584   1.597       .  S
C3554      C3555   1.388       .  D
C3555      C3556   1.551       .  S
C3555      C3818   1.514       .  S
C3556      C3560   1.544       .  S
C3556      C3558   1.544       .  S
C3556      H3562   1.111       .  S
C3557      H3563   1.086       .  S
C3557      C3558   1.376       .  D
C3558      C3653   1.506       .  S
C3559      C3560   1.377       .  D
C3560      C3873   1.507       .  S
C3565      C3566   1.556       .  S
C3565      C3571   1.557       .  S
C3565      C3569   1.555       .  S
C3565      C3582   1.597       .  S
C3566      C3567   1.377       .  D
C3567      C3568   1.544       .  S
C3567      C3905   1.507       .  S
C3568      C3572   1.551       .  S
C3568      C3570   1.544       .  S
C3568      H3574   1.111       .  S
C3569      H3575   1.086       .  S
C3569      C3570   1.376       .  D
C3570      C3708   1.506       .  S
C3571      C3572   1.388       .  D
C3572      C3795   1.514       .  S
C3578      H3585   1.086       .  S
C3578      C3579   1.379       .  D
C3580      H3586   1.107       .  S
C3581      H3587   1.086       .  S
C3583      H3588   1.086       .  S
C3589      C4004   1.505       .  S
C3589      C3590   1.422       .  A
C3589      C3594   1.422       .  A
C3590      C3591   1.420       .  A
C3590      H3595   1.083       .  S
C3591      C3592   1.362       .  A
C3591      C3746   1.458       .  S
C3592      C3593   1.362       .  A
C3592      H3596   1.089       .  S
C3593      C3594   1.419       .  A
C3593      C3690   1.457       .  S
C3594      H3597   1.083       .  S
C3598      C4002   1.505       .  S
C3598      C3599   1.422       .  A
C3598      C3603   1.422       .  A
C3599      C3600   1.419       .  A
C3599      H3604   1.083       .  S
C3600      C3601   1.362       .  A
C3600      C3638   1.457       .  S
C3601      C3602   1.362       .  A
C3601      H3605   1.089       .  S
C3602      C3603   1.420       .  A
C3602      C3759   1.458       .  S
C3603      H3606   1.083       .  S
C3607      C4014   1.505       .  S
C3607      C3608   1.426       .  A
C3607      C3612   1.421       .  A
C3608      C3609   1.421       .  A
C3608      H3613   1.082       .  S
C3609      C3610   1.363       .  A
C3609      C3870   1.461       .  S
C3610      C3611   1.362       .  A
C3610      H3614   1.089       .  S
C3611      C3612   1.418       .  A
C3611      C3637   1.456       .  S
C3612      H3615   1.083       .  S
C3616      C3992   1.507       .  S
C3616      C3617   1.426       .  A
C3616      C3621   1.421       .  A
C3617      C3618   1.422       .  A
C3617      H3622   1.082       .  S
C3618      C3619   1.363       .  A
C3618      C3817   1.462       .  S
C3619      C3620   1.363       .  A
C3619      H3623   1.089       .  S
C3620      C3621   1.418       .  A
C3620      C3652   1.457       .  S
C3621      H3624   1.083       .  S
O3625      C3635   1.296       .  A
O3626      C3636   1.296       .  A
O3626     Cu3633   2.028       .  S
O3627      C3637   1.253       .  A
O3627     Cu3633   1.930       .  S
O3628      C3638   1.253       .  A
O3629      C3638   1.295       .  A
O3630      C3637   1.295       .  A
O3630     Cu3634   2.025       .  S
O3631      C3636   1.255       .  A
O3631     Cu3634   1.944       .  S
O3632      C3635   1.256       .  A
Cu3633    Cu3634   2.404       .  S
C3635      C3797   1.465       .  S
C3636      C3657   1.462       .  S
O3639      C3649   1.254       .  A
O3639     Cu3647   1.934       .  S
O3640      C3650   1.254       .  A
O3641      C3651   1.295       .  A
O3642      C3652   1.295       .  A
O3642     Cu3647   2.022       .  S
O3643      C3652   1.254       .  A
O3643     Cu3648   1.935       .  S
O3644      C3651   1.254       .  A
O3645      C3650   1.295       .  A
O3646      C3649   1.295       .  A
O3646     Cu3648   2.022       .  S
Cu3647    Cu3648   2.405       .  S
C3649      C3655   1.456       .  S
C3650      C3852   1.458       .  S
C3651      C3666   1.457       .  S
C3653      C3654   1.421       .  A
C3653      C3658   1.426       .  A
C3654      C3655   1.418       .  A
C3654      H3659   1.083       .  S
C3655      C3656   1.363       .  A
C3656      C3657   1.364       .  A
C3657      C3658   1.421       .  A
C3658      H3661   1.082       .  S
C3662      C3999   1.504       .  S
C3662      C3663   1.422       .  A
C3662      C3667   1.422       .  A
C3663      C3664   1.419       .  A
C3663      H3668   1.083       .  S
C3664      C3665   1.363       .  A
C3664      C3704   1.457       .  S
C3665      C3666   1.363       .  A
C3665      H3669   1.089       .  S
C3666      C3667   1.419       .  A
C3667      H3670   1.083       .  S
C3671      C4016   1.505       .  S
C3671      C3672   1.426       .  A
C3671      C3676   1.421       .  A
C3672      C3673   1.421       .  A
C3672      H3677   1.082       .  S
C3673      C3674   1.363       .  A
C3673      C3902   1.461       .  S
C3674      C3675   1.362       .  A
C3674      H3678   1.089       .  S
C3675      C3676   1.418       .  A
C3675      C3691   1.456       .  S
C3676      H3679   1.083       .  S
O3680      C3690   1.254       .  A
O3681      C3691   1.253       .  A
O3681     Cu3688   1.930       .  S
O3682      C3692   1.296       .  A
O3682     Cu3688   2.028       .  S
O3683      C3693   1.296       .  A
O3684      C3693   1.256       .  A
O3685      C3692   1.255       .  A
O3685     Cu3689   1.944       .  S
O3686      C3691   1.295       .  A
O3686     Cu3689   2.025       .  S
O3687      C3690   1.295       .  A
Cu3688    Cu3689   2.404       .  S
C3692      C3710   1.462       .  S
C3693      C3822   1.465       .  S
O3694      C3704   1.254       .  A
O3695      C3705   1.254       .  A
O3695     Cu3702   1.935       .  S
O3696      C3706   1.295       .  A
O3697      C3707   1.295       .  A
O3697     Cu3702   2.022       .  S
O3698      C3707   1.254       .  A
O3698     Cu3703   1.934       .  S
O3699      C3706   1.254       .  A
O3700      C3705   1.295       .  A
O3700     Cu3703   2.022       .  S
O3701      C3704   1.295       .  A
Cu3702    Cu3703   2.405       .  S
C3705      C3719   1.457       .  S
C3706      C3930   1.458       .  S
C3707      C3712   1.456       .  S
C3708      C3709   1.426       .  A
C3708      C3713   1.421       .  A
C3709      C3710   1.421       .  A
C3709      H3714   1.082       .  S
C3710      C3711   1.363       .  A
C3711      C3712   1.363       .  A
C3712      C3713   1.418       .  A
C3713      H3716   1.083       .  S
C3717      C3975   1.507       .  S
C3717      C3718   1.421       .  A
C3717      C3722   1.426       .  A
C3718      C3719   1.418       .  A
C3718      H3723   1.083       .  S
C3719      C3720   1.362       .  A
C3720      C3721   1.363       .  A
C3720      H3724   1.089       .  S
C3721      C3722   1.422       .  A
C3721      C3791   1.462       .  S
C3722      H3725   1.082       .  S
C3726      C3990   1.506       .  S
C3726      C3727   1.426       .  A
C3726      C3731   1.421       .  A
C3727      C3728   1.421       .  A
C3727      H3732   1.082       .  S
C3728      C3729   1.364       .  A
C3728      C3927   1.462       .  S
C3729      C3730   1.363       .  A
C3729      H3733   1.089       .  S
C3730      C3731   1.418       .  A
C3730      C3745   1.456       .  S
C3731      H3734   1.083       .  S
O3735      C3745   1.295       .  A
O3735     Cu3743   2.022       .  S
O3736      C3746   1.295       .  A
O3737      C3747   1.254       .  A
O3738      C3748   1.254       .  A
O3738     Cu3743   1.934       .  S
O3739      C3748   1.295       .  A
O3739     Cu3744   2.023       .  S
O3740      C3747   1.295       .  A
O3741      C3746   1.254       .  A
O3742      C3745   1.254       .  A
O3742     Cu3744   1.934       .  S
Cu3743    Cu3744   2.405       .  S
C3747      C3875   1.457       .  S
C3748      C3765   1.457       .  S
O3749      C3759   1.254       .  A
O3750      C3760   1.254       .  A
O3750     Cu3757   1.934       .  S
O3751      C3761   1.295       .  A
O3751     Cu3757   2.023       .  S
O3752      C3762   1.295       .  A
O3753      C3762   1.254       .  A
O3754      C3761   1.254       .  A
O3754     Cu3758   1.934       .  S
O3755      C3760   1.295       .  A
O3755     Cu3758   2.022       .  S
O3756      C3759   1.295       .  A
Cu3757    Cu3758   2.405       .  S
C3760      C3776   1.456       .  S
C3761      C3767   1.457       .  S
C3762      C3909   1.457       .  S
C3763      C3764   1.422       .  A
C3763      C3768   1.422       .  A
C3764      C3765   1.419       .  A
C3764      H3769   1.083       .  S
C3765      C3766   1.363       .  A
C3766      C3767   1.363       .  A
C3767      C3768   1.419       .  A
C3768      H3771   1.083       .  S
C3772      C3978   1.506       .  S
C3772      C3773   1.426       .  A
C3772      C3777   1.421       .  A
C3773      C3774   1.421       .  A
C3773      H3778   1.082       .  S
C3774      C3775   1.363       .  A
C3774      C3848   1.462       .  S
C3775      C3776   1.363       .  A
C3775      H3779   1.089       .  S
C3776      C3777   1.418       .  A
C3777      H3780   1.083       .  S
O3781      C3791   1.296       .  A
O3782      C3792   1.296       .  A
O3782     Cu3789   2.030       .  S
O3783      C3793   1.255       .  A
O3784      C3794   1.254       .  A
O3784     Cu3789   1.941       .  S
O3785      C3794   1.296       .  A
O3785     Cu3790   2.030       .  S
O3786      C3793   1.296       .  A
O3787      C3792   1.255       .  A
O3787     Cu3790   1.941       .  S
O3788      C3791   1.255       .  A
Cu3789    Cu3790   2.404       .  S
C3792      C3829   1.462       .  S
C3793      C3799   1.463       .  S
C3794      C3966   1.461       .  S
C3795      C3796   1.427       .  A
C3795      C3800   1.426       .  A
C3796      C3797   1.423       .  A
C3796      H3801   1.083       .  S
C3797      C3798   1.363   1_556  A
C3798      C3799   1.363   1_554  A
C3799      C3800   1.422       .  A
C3800      H3803   1.083       .  S
O3804      C3814   1.254       .  A
O3804     Cu3812   1.941       .  S
O3805      C3815   1.255       .  A
O3806      C3816   1.296       .  A
O3806     Cu3812   2.030       .  S
O3807      C3817   1.296       .  A
O3808      C3817   1.255       .  A
O3809      C3816   1.255       .  A
O3809     Cu3813   1.941       .  S
O3810      C3815   1.296       .  A
O3811      C3814   1.296       .  A
O3811     Cu3813   2.030       .  S
Cu3812    Cu3813   2.404       .  S
C3814      C3948   1.461       .  S
C3815      C3820   1.463       .  S
C3816      C3831   1.462       .  S
C3818      C3819   1.426       .  A
C3818      C3823   1.427       .  A
C3819      C3820   1.422       .  A
C3819      H3824   1.083       .  S
C3820      C3821   1.363   1_655  A
C3821      C3822   1.363   1_455  A
C3822      C3823   1.423       .  A
C3823      H3826   1.083       .  S
C3827      C4011   1.511       .  S
C3827      C3828   1.426       .  A
C3827      C3832   1.426       .  A
C3828      C3829   1.422       .  A
C3828      H3833   1.083       .  S
C3829      C3830   1.363       .  A
C3830      C3831   1.363       .  A
C3830      H3834   1.089       .  S
C3831      C3832   1.422       .  A
C3832      H3835   1.083       .  S
O3836      C3846   1.254       .  A
O3837      C3847   1.253       .  A
O3837     Cu3844   1.930       .  S
O3838      C3848   1.296       .  A
O3839      C3849   1.296       .  A
O3839     Cu3844   2.029       .  S
O3840      C3849   1.256       .  A
O3840     Cu3845   1.947       .  S
O3841      C3848   1.255       .  A
O3842      C3847   1.295       .  A
O3842     Cu3845   2.025       .  S
O3843      C3846   1.295       .  A
Cu3844    Cu3845   2.404       .  S
C3846      C3854   1.457       .  S
C3847      C3968   1.456       .  S
C3849      C3886   1.465       .  S
C3850      C3851   1.422       .  A
C3850      C3855   1.422       .  A
C3851      C3852   1.420       .  A
C3851      H3856   1.083       .  S
C3852      C3853   1.362   1_556  A
C3853      C3854   1.362   1_554  A
C3854      C3855   1.419       .  A
C3855      H3858   1.083       .  S
O3859      C3869   1.255       .  A
O3859     Cu3867   1.942       .  S
O3860      C3870   1.254       .  A
O3861      C3871   1.296       .  A
O3862      C3872   1.296       .  A
O3862     Cu3867   2.030       .  S
O3863      C3872   1.255       .  A
O3863     Cu3868   1.941       .  S
O3864      C3871   1.255       .  A
O3865      C3870   1.296       .  A
O3866      C3869   1.296       .  A
O3866     Cu3868   2.032       .  S
Cu3867    Cu3868   2.404       .  S
C3869      C3884   1.463       .  S
C3871      C3877   1.462       .  S
C3872      C3959   1.462       .  S
C3873      C3874   1.421       .  A
C3873      C3878   1.426       .  A
C3874      C3875   1.418       .  A
C3874      H3879   1.083       .  S
C3876      H3880   1.089       .  S
C3877      C3878   1.422       .  A
C3878      H3881   1.082       .  S
C3882      C3987   1.514       .  S
C3882      C3883   1.426       .  A
C3882      C3887   1.427       .  A
C3883      C3884   1.422       .  A
C3883      H3888   1.083       .  S
C3884      C3885   1.363       .  A
C3885      C3886   1.363       .  A
C3885      H3889   1.089       .  S
C3886      C3887   1.423       .  A
C3887      H3890   1.083       .  S
O3891      C3901   1.255       .  A
O3891     Cu3899   1.942       .  S
O3892      C3902   1.254       .  A
O3893      C3903   1.296       .  A
O3893     Cu3899   2.030       .  S
O3894      C3904   1.296       .  A
O3895      C3904   1.255       .  A
O3896      C3903   1.255       .  A
O3896     Cu3900   1.941       .  S
O3897      C3902   1.296       .  A
O3898      C3901   1.296       .  A
O3898     Cu3900   2.033       .  S
Cu3899    Cu3900   2.404       .  S
C3901      C3939   1.463       .  S
C3903      C3957   1.462       .  S
C3904      C3907   1.462       .  S
C3905      C3906   1.426       .  A
C3905      C3910   1.421       .  A
C3906      C3907   1.422       .  A
C3906      H3911   1.082       .  S
C3908      H3912   1.089       .  S
C3909      C3910   1.418       .  A
C3910      H3913   1.083       .  S
O3914      C3924   1.295       .  A
O3914     Cu3922   2.025       .  S
O3915      C3925   1.295       .  A
O3916      C3926   1.256       .  A
O3916     Cu3922   1.947       .  S
O3917      C3927   1.255       .  A
O3918      C3927   1.296       .  A
O3919      C3926   1.296       .  A
O3919     Cu3923   2.029       .  S
O3920      C3925   1.254       .  A
O3921      C3924   1.253       .  A
O3921     Cu3923   1.930       .  S
Cu3922    Cu3923   2.404       .  S
C3924      C3950   1.456       .  S
C3925      C3932   1.457       .  S
C3926      C3941   1.465       .  S
C3928      C3929   1.422       .  A
C3928      C3933   1.422       .  A
C3929      C3930   1.420       .  A
C3929      H3934   1.083       .  S
C3930      C3931   1.362   1_655  A
C3931      C3932   1.362   1_455  A
C3932      C3933   1.419       .  A
C3933      H3936   1.083       .  S
C3937      C3980   1.514       .  S
C3937      C3938   1.426       .  A
C3937      C3942   1.427       .  A
C3938      C3939   1.422       .  A
C3938      H3943   1.083       .  S
C3939      C3940   1.363       .  A
C3940      C3941   1.363       .  A
C3940      H3944   1.089       .  S
C3941      C3942   1.423       .  A
C3942      H3945   1.083       .  S
C3946      C3947   1.426       .  A
C3946      C3951   1.421       .  A
C3947      C3948   1.421       .  A
C3947      H3952   1.082       .  S
C3948      C3949   1.363       .  A
C3949      C3950   1.362       .  A
C3950      C3951   1.418       .  A
C3951      H3954   1.083       .  S
C3955      C3956   1.426       .  A
C3955      C3960   1.426       .  A
C3956      C3957   1.422       .  A
C3956      H3961   1.083       .  S
C3957      C3958   1.363       .  A
C3958      C3959   1.363       .  A
C3959      C3960   1.422       .  A
C3960      H3963   1.083       .  S
C3964      C3965   1.426       .  A
C3964      C3969   1.421       .  A
C3965      C3966   1.421       .  A
C3965      H3970   1.082       .  S
C3966      C3967   1.363       .  A
C3967      C3968   1.362       .  A
C3968      C3969   1.418       .  A
C3969      H3972   1.083       .  S
C3973      C3974   1.556       .  S
C3973      C3979   1.557       .  S
C3973      C3977   1.555       .  S
C3973      C4026   1.597       .  S
C3974      H3981   1.086       .  S
C3974      C3975   1.377       .  D
C3975      C3976   1.544       .  S
C3976      C3980   1.551       .  S
C3976      C3978   1.544       .  S
C3976      H3982   1.111       .  S
C3977      H3983   1.086       .  S
C3977      C3978   1.376       .  D
C3979      H3984   1.085       .  S
C3979      C3980   1.388       .  D
C3985      C3986   1.557       .  S
C3985      C3991   1.556       .  S
C3985      C3989   1.555       .  S
C3985      C4028   1.597       .  S
C3986      H3993   1.085       .  S
C3986      C3987   1.388       .  D
C3987      C3988   1.551       .  S
C3988      C3992   1.544       .  S
C3988      C3990   1.544       .  S
C3988      H3994   1.111       .  S
C3989      H3995   1.086       .  S
C3989      C3990   1.376       .  D
C3991      H3996   1.086       .  S
C3991      C3992   1.377       .  D
C3997      C3998   1.552       .  S
C3997      C4003   1.553       .  S
C3997      C4001   1.553       .  S
C3997      C4021   1.620       .  S
C3998      H4005   1.086       .  S
C3998      C3999   1.377       .  D
C3999      C4000   1.546       .  S
C4000      C4004   1.547       .  S
C4000      C4002   1.547       .  S
C4000      H4006   1.111       .  S
C4001      H4007   1.086       .  S
C4001      C4002   1.378       .  D
C4003      H4008   1.086       .  S
C4003      C4004   1.378       .  D
C4009      C4010   1.555       .  S
C4009      C4015   1.555       .  S
C4009      C4013   1.555       .  S
C4009      C4023   1.593       .  S
C4010      H4017   1.085       .  S
C4010      C4011   1.387       .  D
C4011      C4012   1.550       .  S
C4012      C4016   1.544       .  S
C4012      C4014   1.544       .  S
C4012      H4018   1.111       .  S
C4013      H4019   1.086       .  S
C4013      C4014   1.376       .  D
C4015      H4020   1.086       .  S
C4015      C4016   1.376       .  D
C4021      C4022   1.543       .  S
C4021      C4027   1.544       .  S
C4021      C4025   1.544       .  S
C4022      H4029   1.086       .  S
C4022      C4023   1.379       .  D
C4023      C4024   1.597       .  S
C4024      C4028   1.598       .  S
C4024      C4026   1.598       .  S
C4024      H4030   1.107       .  S
C4025      H4031   1.086       .  S
C4025      C4026   1.380       .  D
C4027      H4032   1.086       .  S
C4027      C4028   1.380       .  D
