geometry optimzed in LAMMPS
_audit_creation_date              2020-12-01 
_audit_creation_method            'lammps2cif' 
_symmetry_space_group_name_H-M    'P1' 
_symmetry_Int_Tables_number       1 
_symmetry_cell_setting            triclinic 
loop_ 
_symmetry_equiv_pos_as_xyz 
  x,y,z 
_cell_length_a                    33.46262497 
_cell_length_b                    33.34290877041559 
_cell_length_c                    33.515106812151885 
_cell_angle_alpha                 90.16015904462307 
_cell_angle_beta                  90.1715057828228 
_cell_angle_gamma                 90.32783656458292 
loop_ 
_atom_site_label 
_atom_site_type_symbol 
_atom_site_fract_x 
_atom_site_fract_y 
_atom_site_fract_z 
_atom_site_charge 
C1          C  0.80010391  0.26294140  0.45814350     0.05200
C2          C  0.83916904  0.27770870  0.45696846    -0.10900
C3          C  0.85639296  0.29622658  0.49012667     0.02700
C4          C  0.83736240  0.29383016  0.52709764    -0.09500
C5          C  0.79967130  0.27583805  0.53098103     0.05200
C6          C  0.77995584  0.26144963  0.49572385    -0.08900
H7          H  0.85453524  0.27933324  0.42853311     0.10800
H8          H  0.85087643  0.30826665  0.55288372     0.08300
H9          H  0.74959561  0.25027600  0.49734440     0.08200
C10         C  0.45865922  0.77624267  0.30489687     0.05200
C11         C  0.49733600  0.77036115  0.28797343    -0.10900
C12         C  0.53218176  0.78558886  0.30800904     0.02700
C13         C  0.52692784  0.80612522  0.34427128    -0.09500
C14         C  0.48901479  0.81377417  0.35949739     0.05200
C15         C  0.45560075  0.79785338  0.34050296    -0.08900
H16         H  0.50016631  0.75453812  0.25987936     0.10800
H17         H  0.55261541  0.81770999  0.36030939     0.08300
H18         H  0.42635164  0.80355705  0.35312183     0.08200
C19         C  0.28052776  0.55502729  0.80161223     0.05200
C20         C  0.27416877  0.51584184  0.78566445    -0.10900
C21         C  0.28474974  0.48107346  0.80829064     0.02700
C22         C  0.30130818  0.48749237  0.84662326    -0.09500
C23         C  0.31048080  0.52598993  0.86092429     0.05200
C24         C  0.29846853  0.55925524  0.83902961    -0.08900
H25         H  0.26190764  0.51286196  0.75592181     0.10800
H26         H  0.30846515  0.46232973  0.86543467     0.08300
H27         H  0.30407230  0.58909988  0.85086987     0.08200
C28         C  0.19811025  0.30538480  0.96270911     0.05200
C29         C  0.21812713  0.29378899  0.99882280    -0.10900
C30         C  0.19876720  0.29820574  0.03671902     0.02700
C31         C  0.15936401  0.31229955  0.03719650    -0.09500
C32         C  0.14062432  0.32634163  0.00279059     0.05200
C33         C  0.15937840  0.32124542  0.96596649    -0.08900
H34         H  0.24851586  0.28293444  0.99761640     0.10800
H35         H  0.14369214  0.31454228  0.06536696     0.08300
H36         H  0.14393472  0.33109760  0.93941418     0.08200
C37         C  0.29583758  0.95563160  0.23858267     0.05200
C38         C  0.27670500  0.99274341  0.24780432    -0.10900
C39         C  0.29347163  0.02958015  0.23370467     0.02700
C40         C  0.32756183  0.02826896  0.20975480    -0.09500
C41         C  0.34552511  0.99195268  0.20000374     0.05200
C42         C  0.33062134  0.95626975  0.21567123    -0.08900
H43         H  0.24930041  0.99289387  0.26480957     0.10800
H44         H  0.33914778  0.05584741  0.19700318     0.08300
H45         H  0.34477141  0.92819118  0.20757420     0.08200
C46         C  0.78812185  0.71245239  0.46831001     0.05200
C47         C  0.77726332  0.73265515  0.50437405    -0.10900
C48         C  0.78418303  0.71377492  0.54218459     0.02700
C49         C  0.79804692  0.67407918  0.54192637    -0.09500
C50         C  0.81332027  0.65648163  0.50748424     0.05200
C51         C  0.80920319  0.67643778  0.47125874    -0.08900
H52         H  0.76376206  0.76200114  0.50288411     0.10800
H53         H  0.79889119  0.65718062  0.56944864     0.08300
H54         H  0.82165167  0.66332411  0.44441409     0.08200
C55         C  0.21996338  0.70679956  0.95686668     0.05200
C56         C  0.19421289  0.67418772  0.95169838    -0.10900
C57         C  0.17473895  0.65735985  0.98389597     0.02700
C58         C  0.18244616  0.67144794  0.02226684    -0.09500
C59         C  0.21384375  0.69849573  0.03045091     0.05200
C60         C  0.23174366  0.71804514  0.99655686    -0.08900
H61         H  0.18692646  0.66371178  0.92185233     0.10800
H62         H  0.16322690  0.66076371  0.04588668     0.08300
H63         H  0.25387572  0.74147175  0.00044836     0.08200
O64         O  0.00628738  0.45598437  0.96413279    -0.72300
O65         O  0.94972223  0.55388461  0.95071984    -0.72400
O66         O  0.02705264  0.53298625  0.94920030    -0.72400
O67         O  0.92836560  0.47810994  0.96559031    -0.72500
O68         O  0.93283410  0.49006202  0.03106333    -0.72400
O69         O  0.03186524  0.54337087  0.01497167    -0.72400
O70         O  0.95496706  0.56592681  0.01610851    -0.72400
O71         O  0.01008061  0.46746825  0.02961726    -0.72400
Ni72       Ni  0.97774400  0.50468325  0.95502659     1.25400
Ni73       Ni  0.98261728  0.51707992  0.02528055     1.25400
C74         C  0.01830594  0.44604015  0.99903010     0.89800
C75         C  0.94247482  0.57556203  0.98134277     0.89800
C76         C  0.04530536  0.54750362  0.97957865     0.89800
C77         C  0.91409005  0.47579367  0.00089543     0.90000
C78         C  0.71833806  0.03660712  0.21024755     0.05200
C79         C  0.72191573  0.99810089  0.22848964    -0.10900
C80         C  0.70579257  0.96306182  0.20897453     0.02700
C81         C  0.68660911  0.96858006  0.17192025    -0.09500
C82         C  0.67992993  0.00667181  0.15650198     0.05200
C83         C  0.69670377  0.03985458  0.17489292    -0.08900
H84         H  0.73683769  0.99581622  0.25703439     0.10800
H85         H  0.67550412  0.94323648  0.15497447     0.08300
H86         H  0.69193864  0.06916400  0.16171758     0.08200
O87         O  0.43722351  0.04025041  0.97728808    -0.72300
O88         O  0.53435218  0.04837167  0.03593684    -0.72400
O89         O  0.51440720  0.05240374  0.95843341    -0.72400
O90         O  0.45755608  0.03664541  0.05518153    -0.72500
O91         O  0.46556880  0.97038331  0.04936923    -0.72400
O92         O  0.52221369  0.98614446  0.95224274    -0.72400
O93         O  0.54281262  0.98223681  0.02970263    -0.72400
O94         O  0.44586189  0.97405863  0.97174063    -0.72400
Ni95       Ni  0.48550979  0.04682323  0.00694006     1.25400
Ni96       Ni  0.49441772  0.97580823  0.00066926     1.25400
C97         C  0.42646731  0.00591613  0.96376834     0.89800
C98         C  0.55434711  0.01650775  0.04259008     0.89800
C99         C  0.52769450  0.02190055  0.93959010     0.89800
C100        C  0.45212472  0.00098378  0.06801163     0.90000
C101        C  0.76322342  0.31255949  0.95987667     0.05200
C102        C  0.78012324  0.35056531  0.96557580    -0.10900
C103        C  0.78381417  0.36759941  0.00360904     0.02700
C104        C  0.76862236  0.34700314  0.03640550    -0.09500
C105        C  0.75593583  0.30716413  0.03300000     0.05200
C106        C  0.75228958  0.28968037  0.99417571    -0.08900
H107        H  0.79227735  0.36611910  0.93992966     0.10800
H108        H  0.77054995  0.36060769  0.06575974     0.08300
H109        H  0.74213094  0.25899140  0.99082380     0.08200
C110        C  0.72427943  0.72647888  0.27734191     0.47500
H111        H  0.70571035  0.70667694  0.29620659    -0.01500
C112        C  0.76645717  0.77296418  0.23225536     0.47600
H113        H  0.78386468  0.79270339  0.21222616    -0.01500
C114        C  0.70265771  0.76622708  0.26794049    -0.15200
C115        C  0.76481639  0.73869373  0.29674227    -0.14900
C116        C  0.73440470  0.70741260  0.23642258    -0.15300
C117        C  0.72685286  0.79247810  0.24669940    -0.15300
C118        C  0.78936819  0.75993221  0.27086664    -0.14800
C119        C  0.75357800  0.73360148  0.21070404    -0.15200
C120        C  0.72100964  0.53736023  0.19496048     0.05200
C121        C  0.73190635  0.50191568  0.21621159    -0.10900
C122        C  0.73257494  0.46411346  0.19618953     0.02700
C123        C  0.72231770  0.46223841  0.15580940    -0.09500
C124        C  0.70709410  0.49554941  0.13610430     0.05200
C125        C  0.70930847  0.53306987  0.15482865    -0.08900
H126        H  0.73907457  0.50349581  0.24769062     0.10800
H127        H  0.72244738  0.43344345  0.14068969     0.08300
H128        H  0.69976286  0.55912670  0.13845052     0.08200
C129        C  0.77756514  0.23142033  0.22140638     0.47500
H130        H  0.79877172  0.21543701  0.20210244    -0.01500
C131        C  0.73018524  0.27195918  0.26707647     0.47600
H132        H  0.70979963  0.28955938  0.28606337    -0.01500
C133        C  0.76141383  0.26990335  0.20146166    -0.15200
C134        C  0.73998939  0.20705460  0.23408553    -0.14900
C135        C  0.79754081  0.24516560  0.26093413    -0.15300
C136        C  0.74052020  0.29376362  0.22762784    -0.15300
C137        C  0.71260293  0.23058709  0.25426952    -0.14800
C138        C  0.77089344  0.26258159  0.28723143    -0.15200
C139        C  0.46975409  0.18963104  0.26585939     0.05200
C140        C  0.50541258  0.20880112  0.25213611    -0.10900
C141        C  0.54333991  0.19100412  0.25981439     0.02700
C142        C  0.54475264  0.15444748  0.27985485    -0.09500
C143        C  0.51052056  0.13759922  0.29653077     0.05200
C144        C  0.47318578  0.15452587  0.28851085    -0.08900
H145        H  0.50375931  0.23734604  0.23697585     0.10800
H146        H  0.57357232  0.14093370  0.28595443     0.08300
H147        H  0.44661437  0.14157952  0.30181921     0.08200
C148        C  0.03219552  0.21676559  0.70984942     0.05200
C149        C  0.02858589  0.17902958  0.69139195    -0.10900
C150        C  0.99155652  0.16221442  0.68202108     0.02700
C151        C  0.95707357  0.18031599  0.69583956    -0.09500
C152        C  0.95808313  0.21707049  0.71599134     0.05200
C153        C  0.99609897  0.23618855  0.72241170    -0.08900
H154        H  0.05509562  0.16322373  0.68215314     0.10800
H155        H  0.92857426  0.16618466  0.68914969     0.08300
H156        H  0.99744699  0.26537612  0.73656435     0.08200
O157        O  0.97290593  0.05549286  0.45403443    -0.72300
O158        O  0.97702372  0.96205929  0.51791009    -0.72400
O159        O  0.96815037  0.04052145  0.53243731    -0.72400
O160        O  0.98135883  0.97672316  0.43983594    -0.72500
O161        O  0.04776721  0.98233679  0.44524318    -0.72400
O162        O  0.03442554  0.04689167  0.53821191    -0.72400
O163        O  0.04323708  0.96858881  0.52348626    -0.72400
O164        O  0.03916346  0.06244098  0.45950997    -0.72400
Ni165      Ni  0.97251333  0.00857109  0.48576262     1.25400
Ni166      Ni  0.04361489  0.01550361  0.49160185     1.25400
C167        C  0.00528872  0.07445638  0.44657497     0.89800
C168        C  0.01068911  0.95008489  0.53138840     0.89800
C169        C  0.99905113  0.05361179  0.55087753     0.89800
C170        C  0.01653969  0.96727291  0.42876036     0.90000
C171        C  0.22100786  0.29345608  0.45844972     0.05200
C172        C  0.20235188  0.33036187  0.45296503    -0.10900
C173        C  0.18654792  0.35178731  0.48461914     0.02700
C174        C  0.19134095  0.33759002  0.52342187    -0.09500
C175        C  0.20939990  0.30054688  0.53152353     0.05200
C176        C  0.22451803  0.27794863  0.49820687    -0.08900
H177        H  0.19942446  0.34243806  0.42305798     0.10800
H178        H  0.17996428  0.35556369  0.54766511     0.08300
H179        H  0.23868446  0.24926405  0.50300477     0.08200
C180        C  0.27419477  0.97838573  0.78531020     0.05200
C181        C  0.26753320  0.01698519  0.76762580    -0.10900
C182        C  0.28263036  0.05266607  0.78690997     0.02700
C183        C  0.30241540  0.04825675  0.82362417    -0.09500
C184        C  0.31091874  0.01073551  0.83916394     0.05200
C185        C  0.29692111  0.97650139  0.82021751    -0.08900
H186        H  0.25112752  0.01913685  0.73981245     0.10800
H187        H  0.31279884  0.07437201  0.83994134     0.08300
H188        H  0.30382228  0.94757034  0.83322362     0.08200
C189        C  0.26746167  0.29178128  0.72606156     0.47500
H190        H  0.28582052  0.31188912  0.70701370    -0.01500
C191        C  0.22406930  0.24589086  0.77080234     0.47600
H192        H  0.20538613  0.22627899  0.79003376    -0.01500
C193        C  0.22735457  0.27951781  0.70581255    -0.15200
C194        C  0.28852436  0.25171029  0.73633203    -0.14900
C195        C  0.25664260  0.31127077  0.76675730    -0.15300
C196        C  0.20251962  0.25820205  0.73152671    -0.15300
C197        C  0.26362783  0.22555091  0.75728558    -0.14800
C198        C  0.23640164  0.28558339  0.79203343    -0.15200
C199        C  0.53302839  0.24476178  0.69937869     0.05200
C200        C  0.53677773  0.22534958  0.66267962    -0.10900
C201        C  0.50417095  0.20909138  0.64285688     0.02700
C202        C  0.46584371  0.21485606  0.65801283    -0.09500
C203        C  0.45951656  0.23316156  0.69533091     0.05200
C204        C  0.49403146  0.24813730  0.71652985    -0.08900
H205        H  0.56617736  0.22151899  0.64968867     0.10800
H206        H  0.44079613  0.20379430  0.64075221     0.08300
H207        H  0.49074423  0.26213468  0.74549636     0.08200
C208        C  0.72819134  0.29832247  0.72043010     0.47500
H209        H  0.71355179  0.31917580  0.69971395    -0.01500
C210        C  0.76646142  0.25192104  0.76861130     0.47600
H211        H  0.78287955  0.23274478  0.78983037    -0.01500
C212        C  0.76748607  0.28178800  0.70232814    -0.15200
C213        C  0.73953186  0.31912295  0.76034523    -0.14900
C214        C  0.70300494  0.26103023  0.73285234    -0.15300
C215        C  0.78965610  0.26032570  0.72961680    -0.15300
C216        C  0.75729857  0.29323091  0.78709766    -0.14800
C217        C  0.72544079  0.23433936  0.75523977    -0.15200
C218        C  0.70767978  0.48866072  0.78447999     0.05200
C219        C  0.67594350  0.48803965  0.81160076    -0.10900
C220        C  0.65753962  0.52324205  0.82352130     0.02700
C221        C  0.67110884  0.55989694  0.80936609    -0.09500
C222        C  0.70325315  0.56255001  0.78312520     0.05200
C223        C  0.72219450  0.52645394  0.77036218    -0.08900
H224        H  0.66515851  0.45964561  0.82331636     0.10800
H225        H  0.65624529  0.58705001  0.81908574     0.08300
H226        H  0.74655650  0.52764353  0.74920772     0.08200
C227        C  0.75480588  0.80050576  0.77061578     0.47500
H228        H  0.77317309  0.82187538  0.78789215    -0.01500
C229        C  0.71203103  0.75399891  0.72549721     0.47600
H230        H  0.69470048  0.73412403  0.70534844    -0.01500
C231        C  0.71549630  0.82016170  0.75594551    -0.15200
C232        C  0.77694986  0.78688247  0.73228712    -0.14900
C233        C  0.74142774  0.76135275  0.79270377    -0.15300
C234        C  0.69087794  0.79384135  0.73533746    -0.15300
C235        C  0.75262067  0.76508595  0.70680319    -0.14800
C236        C  0.72220376  0.73496062  0.76649192    -0.15200
C237        C  0.51885612  0.81632528  0.72543000     0.05200
C238        C  0.51559707  0.85323471  0.70601154    -0.10900
C239        C  0.47847632  0.87145011  0.70038529     0.02700
C240        C  0.44431039  0.85306099  0.71554389    -0.09500
C241        C  0.44571082  0.81441384  0.73132556     0.05200
C242        C  0.48340437  0.79578670  0.73711019    -0.08900
H243        H  0.54234061  0.86706656  0.69394529     0.10800
H244        H  0.41559688  0.86756008  0.71203027     0.08300
H245        H  0.48507693  0.76601622  0.74988061     0.08200
C246        C  0.21297245  0.78371889  0.76916875     0.47500
H247        H  0.19311679  0.80103106  0.78876060    -0.01500
C248        C  0.25807670  0.74177437  0.72258069     0.47600
H249        H  0.27742609  0.72376475  0.70278209    -0.01500
C250        C  0.19132765  0.76970093  0.73064351    -0.15200
C251        C  0.25044779  0.80726039  0.75499430    -0.14900
C252        C  0.22920371  0.74520364  0.78928562    -0.15300
C253        C  0.21657490  0.75076845  0.70406739    -0.15300
C254        C  0.27639903  0.78312732  0.73373175    -0.14800
C255        C  0.24974892  0.72107534  0.76293689    -0.15200
C256        C  0.96254273  0.78083278  0.29507101     0.05200
C257        C  0.96708792  0.81272226  0.32210970    -0.10900
C258        C  0.00490206  0.82650122  0.33350884     0.02700
C259        C  0.03881078  0.80750649  0.31934325    -0.09500
C260        C  0.03627418  0.77631752  0.29158602     0.05200
C261        C  0.99765898  0.76223109  0.27946701    -0.08900
H262        H  0.94082987  0.82778953  0.33357882     0.10800
H263        H  0.06797753  0.81901466  0.32809390     0.08300
H264        H  0.99500813  0.73863413  0.25740043     0.08200
C265        C  0.26921793  0.71512031  0.27060290     0.47500
H266        H  0.28611513  0.69360067  0.28904873    -0.01500
C267        C  0.22809955  0.76195441  0.22517550     0.47600
H268        H  0.20949367  0.78021461  0.20521272    -0.01500
C269        C  0.22866044  0.72702989  0.28920679    -0.15200
C270        C  0.29097228  0.75542547  0.26219283    -0.14900
C271        C  0.26036981  0.69680232  0.22908385    -0.15300
C272        C  0.20498592  0.74810256  0.26289565    -0.15300
C273        C  0.26705936  0.78260987  0.24151539    -0.14800
C274        C  0.24133981  0.72299540  0.20364614    -0.15200
C275        C  0.31417717  0.53137118  0.21037278     0.05200
C276        C  0.29312855  0.49423115  0.21412030    -0.10900
C277        C  0.31464743  0.45768525  0.21727966     0.02700
C278        C  0.35634045  0.45922294  0.21929121    -0.09500
C279        C  0.37738945  0.49388333  0.20871348     0.05200
C280        C  0.35600495  0.53003211  0.20705802    -0.08900
H281        H  0.26085943  0.49365575  0.21360899     0.10800
H282        H  0.37218387  0.43186728  0.22579994     0.08300
H283        H  0.37192192  0.55801100  0.20157418     0.08200
C284        C  0.19366231  0.72977276  0.45919052     0.05200
C285        C  0.20976175  0.74425682  0.49617369    -0.10900
C286        C  0.18862637  0.73716096  0.53256489     0.02700
C287        C  0.15239691  0.71630286  0.53101340    -0.09500
C288        C  0.13826290  0.69977135  0.49544141     0.05200
C289        C  0.15796888  0.70772114  0.45977863    -0.08900
H290        H  0.23839472  0.75947182  0.49675645     0.10800
H291        H  0.13675128  0.70964458  0.55857030     0.08300
H292        H  0.14687704  0.69423648  0.43236942     0.08200
C293        C  0.94999771  0.80242097  0.69918592     0.05200
C294        C  0.95972588  0.83028620  0.66929743    -0.10900
C295        C  0.99702136  0.83074886  0.65110463     0.02700
C296        C  0.02771461  0.80791791  0.66648778    -0.09500
C297        C  0.02254150  0.78665590  0.70178118     0.05200
C298        C  0.98302143  0.78183593  0.71745920    -0.08900
H299        H  0.93818579  0.85220597  0.65948596     0.10800
H300        H  0.05705437  0.80960720  0.65288260     0.08300
H301        H  0.97870947  0.76272719  0.74316351     0.08200
C302        C  0.68449871  0.99127248  0.77308193     0.05200
C303        C  0.70334171  0.02733428  0.75991179    -0.10900
C304        C  0.68705019  0.06517331  0.77097199     0.02700
C305        C  0.65226758  0.06615377  0.79387168    -0.09500
C306        C  0.63480570  0.03103446  0.80812647     0.05200
C307        C  0.65050335  0.99394811  0.79711287    -0.08900
H308        H  0.73055852  0.02599972  0.74266537     0.10800
H309        H  0.63978189  0.09488140  0.80247144     0.08300
H310        H  0.63729181  0.96671351  0.80897968     0.08200
C311        C  0.04233811  0.24112506  0.29131699     0.05200
C312        C  0.03962804  0.21987312  0.32708505    -0.10900
C313        C  0.00269245  0.20997888  0.34340570     0.02700
C314        C  0.96776339  0.22409352  0.32601817    -0.09500
C315        C  0.96844632  0.24392614  0.28944121     0.05200
C316        C  0.00624477  0.25264600  0.27146574    -0.08900
H317        H  0.06659902  0.20817698  0.34069011     0.10800
H318        H  0.93924623  0.21598792  0.33925683     0.08300
H319        H  0.00751239  0.26701969  0.24261152     0.08200
C320        C  0.28260980  0.26783927  0.26646531     0.47500
H321        H  0.30545115  0.28530297  0.28281255    -0.01500
C322        C  0.23265532  0.22636532  0.22400073     0.47600
H323        H  0.21132943  0.20957422  0.20503040    -0.01500
C324        C  0.27020018  0.28914181  0.22748204    -0.15200
C325        C  0.29932549  0.22677645  0.25361806    -0.14900
C326        C  0.24308321  0.25864694  0.28940783    -0.15300
C327        C  0.24652105  0.26563290  0.20291761    -0.15300
C328        C  0.27114034  0.20250759  0.23514362    -0.14800
C329        C  0.21469795  0.24031713  0.26465504    -0.15200
C330        C  0.77166379  0.71943136  0.03559849     0.05200
C331        C  0.75005817  0.73575719  0.00216373    -0.10900
C332        C  0.76503256  0.73059879  0.96231972     0.02700
C333        C  0.80011130  0.70886774  0.95690460    -0.09500
C334        C  0.82140216  0.69361617  0.98887625     0.05200
C335        C  0.80796229  0.70004506  0.02762539    -0.08900
H336        H  0.72258915  0.75203758  0.00692740     0.10800
H337        H  0.81161852  0.70439425  0.92697818     0.08300
H338        H  0.82593143  0.68878226  0.05197182     0.08200
O339        O  0.55197677  0.47086750  0.02241155    -0.72300
O340        O  0.44703530  0.48796423  0.98147052    -0.72400
O341        O  0.52144566  0.48572556  0.95023700    -0.72400
O342        O  0.47899100  0.47324394  0.05457162    -0.72500
O343        O  0.48570130  0.53878821  0.06571769    -0.72400
O344        O  0.52786936  0.55149349  0.96158715    -0.72400
O345        O  0.45387893  0.55379904  0.99205796    -0.72400
O346        O  0.55892850  0.53661890  0.03325459    -0.72400
Ni347      Ni  0.49926950  0.47710817  0.00178389     1.25400
Ni348      Ni  0.50649638  0.54756144  0.01359053     1.25400
C349        C  0.57275871  0.50091465  0.03437012     0.89800
C350        C  0.43399561  0.52382196  0.97838362     0.89800
C351        C  0.53436020  0.52042102  0.94024766     0.89800
C352        C  0.47703174  0.50353831  0.07801602     0.90000
O353        O  0.53796832  0.02690566  0.45451204    -0.72300
O354        O  0.52111754  0.98244860  0.55777167    -0.72400
O355        O  0.52187795  0.95304842  0.48268859    -0.72400
O356        O  0.53744720  0.05588275  0.52936492    -0.72500
O357        O  0.47215621  0.06799555  0.52359802    -0.72400
O358        O  0.45649142  0.96487352  0.47721059    -0.72400
O359        O  0.45571931  0.99424927  0.55206824    -0.72400
O360        O  0.47239418  0.03802174  0.44895227    -0.72400
Ni361      Ni  0.53197291  0.00410254  0.50631659     1.25400
Ni362      Ni  0.46184222  0.01675482  0.50034981     1.25400
C363        C  0.50779976  0.03973208  0.43488351     0.89800
C364        C  0.48555562  0.98067208  0.57161350     0.89800
C365        C  0.48684380  0.94252867  0.47126361     0.89800
C366        C  0.50732982  0.07868964  0.53449224     0.90000
O367        O  0.01870488  0.55314131  0.45939580    -0.72300
O368        O  0.96669753  0.45155981  0.45310240    -0.72400
O369        O  0.94223124  0.52766068  0.46398876    -0.72400
O370        O  0.04279856  0.47706377  0.44854099    -0.75300
O371        O  0.04940134  0.47032090  0.51452808    -0.72400
O372        O  0.94876227  0.51989367  0.52978364    -0.72400
O373        O  0.97351678  0.44383803  0.51885136    -0.72400
O374        O  0.02490366  0.54556463  0.52529308    -0.72400
Ni375      Ni  0.99229343  0.50261503  0.45385891     1.25400
Ni376      Ni  0.99927008  0.49462440  0.52447563     1.25400
C377        C  0.03128933  0.56548130  0.49336829     0.89800
C378        C  0.96156084  0.43097221  0.48484882     0.89800
C379        C  0.92942777  0.53290899  0.49954931     0.89800
C380        C  0.06249531  0.46536579  0.47909039     0.90000
C381        C  0.10844179  0.27724107  0.28999999     0.25700
C382        C  0.08397091  0.24591875  0.27553554    -0.22400
C383        C  0.10284740  0.21258751  0.25806087     0.20600
C384        C  0.14483266  0.21019290  0.25584203     0.25600
C385        C  0.16961066  0.24149568  0.27042787    -0.22400
C386        C  0.15045029  0.27542861  0.28696346     0.20500
F387        F  0.17217378  0.30703606  0.30063052    -0.12300
F388        F  0.09165045  0.30879644  0.30922600    -0.14700
F389        F  0.16109316  0.17588084  0.24151296    -0.14700
F390        F  0.08049870  0.18072717  0.24579190    -0.12300
C391        C  0.08860705  0.60243681  0.52196429     0.25700
C392        C  0.05588742  0.60175524  0.49568944    -0.22400
C393        C  0.04925959  0.63430936  0.46999879     0.20600
C394        C  0.07521332  0.66726783  0.47070678     0.25600
C395        C  0.10813441  0.66763365  0.49681588    -0.22400
C396        C  0.11468835  0.63487122  0.52225370     0.20500
F397        F  0.14782815  0.63308337  0.54570371    -0.12300
F398        F  0.09696460  0.57046747  0.54555698    -0.14700
F399        F  0.06858512  0.69849091  0.44566600    -0.14700
F400        F  0.01787964  0.63408671  0.44421881    -0.12300
C401        C  0.27094029  0.40255536  0.24544978     0.25700
C402        C  0.29636937  0.41652652  0.21533678    -0.22400
C403        C  0.31078684  0.38846355  0.18704419     0.20600
C404        C  0.30246085  0.34724734  0.19063938     0.25600
C405        C  0.27847585  0.33309731  0.22186852    -0.22400
C406        C  0.26187689  0.36140921  0.24848459     0.20500
F407        F  0.23663653  0.34926040  0.27759038    -0.12300
F408        F  0.25651757  0.42840316  0.27316898    -0.14700
F409        F  0.31875871  0.32108190  0.16428011    -0.14700
F410        F  0.33427219  0.40095890  0.15650695    -0.12300
C411        C  0.42700367  0.45631846  0.16609642     0.25700
C412        C  0.41749680  0.49080503  0.18896717    -0.22400
C413        C  0.44059736  0.52568830  0.18220667     0.20600
C414        C  0.46223059  0.52968087  0.14682591     0.25600
C415        C  0.46349870  0.49765020  0.11943289    -0.22400
C416        C  0.44971323  0.45987260  0.13170054     0.20500
F417        F  0.45523949  0.42659317  0.10893831    -0.12300
F418        F  0.41178825  0.41947380  0.17392130    -0.14700
F419        F  0.48005014  0.56540296  0.13865511    -0.14700
F420        F  0.44005384  0.55692852  0.20826435    -0.12300
C421        C  0.21290225  0.76529410  0.35345578     0.25700
C422        C  0.22332773  0.72899605  0.33412311    -0.22400
C423        C  0.23145436  0.69558057  0.35840968     0.20600
C424        C  0.22626377  0.69742286  0.40006936     0.25600
C425        C  0.21325217  0.73284582  0.41904104    -0.22400
C426        C  0.20760830  0.76703543  0.39522411     0.20500
F427        F  0.19464302  0.80161289  0.41213424    -0.12300
F428        F  0.20774297  0.79931917  0.33194841    -0.14700
F429        F  0.23121447  0.66350391  0.42181731    -0.14700
F430        F  0.24259078  0.66028591  0.34179728    -0.12300
C431        C  0.29798261  0.64339587  0.19024309     0.25700
C432        C  0.27069751  0.65380645  0.22018509    -0.22400
C433        C  0.25338345  0.62268671  0.24287622     0.20600
C434        C  0.26534372  0.58252545  0.23800878     0.25600
C435        C  0.29443238  0.57212990  0.20959201    -0.22400
C436        C  0.30891090  0.60310374  0.18429287     0.20500
F437        F  0.33440375  0.59459166  0.15401794    -0.12300
F438        F  0.31504998  0.67237260  0.16746409    -0.14700
F439        F  0.24984715  0.55419569  0.26259601    -0.14700
F440        F  0.22460653  0.63122397  0.26993983    -0.12300
C441        C  0.09995195  0.79325879  0.25679163     0.25700
C442        C  0.07568322  0.76359969  0.27469417    -0.22400
C443        C  0.09407732  0.72799050  0.28729830     0.20600
C444        C  0.13574964  0.72280622  0.28326351     0.25600
C445        C  0.16037653  0.75371634  0.26767482    -0.22400
C446        C  0.14154476  0.78882062  0.25410241     0.20500
F447        F  0.16346339  0.82033819  0.24067919    -0.12300
F448        F  0.08355115  0.82855141  0.24520232    -0.14700
F449        F  0.15196685  0.68750978  0.29496132    -0.14700
F450        F  0.07209026  0.69918697  0.30570418    -0.12300
C451        C  0.08401715  0.80868375  0.73701075     0.25700
C452        C  0.06107939  0.77636930  0.72186542    -0.22400
C453        C  0.08129908  0.74098635  0.71137201     0.20600
C454        C  0.12334288  0.73865068  0.71431652     0.25600
C455        C  0.14641008  0.77213000  0.72671082    -0.22400
C456        C  0.12591630  0.80683581  0.73888689     0.20500
F457        F  0.14649842  0.84027182  0.74998411    -0.12300
F458        F  0.06595466  0.84404176  0.74560358    -0.14700
F459        F  0.14148470  0.70366637  0.70462204    -0.14700
F460        F  0.06052842  0.70961531  0.69563939    -0.12300
C461        C  0.22322461  0.71421829  0.63768543     0.25700
C462        C  0.20974728  0.74777194  0.65943340    -0.22400
C463        C  0.19396756  0.78030936  0.63753972     0.20600
C464        C  0.19062248  0.77865293  0.59555317     0.25600
C465        C  0.20402994  0.74505381  0.57395265    -0.22400
C466        C  0.22043681  0.71293721  0.59572352     0.20500
F467        F  0.23123936  0.67888401  0.57634783    -0.12300
F468        F  0.23745150  0.68160716  0.65714570    -0.14700
F469        F  0.17247527  0.80921287  0.57605155    -0.14700
F470        F  0.18201022  0.81409233  0.65664814    -0.12300
C471        C  0.38315321  0.80385896  0.77028462     0.25700
C472        C  0.40601331  0.79481132  0.73638493    -0.22400
C473        C  0.38605363  0.78053370  0.70203681     0.20600
C474        C  0.34415264  0.77749882  0.70090314     0.25600
C475        C  0.32105603  0.78844737  0.73422531    -0.22400
C476        C  0.34129357  0.80022885  0.76946442     0.20500
F477        F  0.32063951  0.80842667  0.80327884    -0.12300
F478        F  0.40128306  0.81882632  0.80345074    -0.14700
F479        F  0.32611566  0.76588094  0.66638196    -0.14700
F480        F  0.40707612  0.77285975  0.66829601    -0.12300
C481        C  0.44693397  0.93223529  0.61149692     0.25700
C482        C  0.47856306  0.95983583  0.60922347    -0.22400
C483        C  0.50614286  0.96291809  0.64071187     0.20600
C484        C  0.50373057  0.93659678  0.67289689     0.25600
C485        C  0.47476357  0.90582633  0.67295421    -0.22400
C486        C  0.44542306  0.90489653  0.64262593     0.20500
F487        F  0.41761136  0.87512054  0.64054910    -0.12300
F488        F  0.41992798  0.92870608  0.58131731    -0.14700
F489        F  0.53087440  0.93989016  0.70295297    -0.14700
F490        F  0.53624525  0.99036463  0.63951653    -0.12300
C491        C  0.62395096  0.81188922  0.76641876     0.25700
C492        C  0.64575846  0.79735444  0.73334255    -0.22400
C493        C  0.62361077  0.78263286  0.70033449     0.20600
C494        C  0.58163217  0.78510844  0.69934715     0.25600
C495        C  0.56034994  0.80139974  0.73160364    -0.22400
C496        C  0.58200226  0.81425267  0.76529936     0.20500
F497        F  0.56250099  0.83115062  0.79651355    -0.12300
F498        F  0.64305115  0.82339524  0.80036486    -0.14700
F499        F  0.56178632  0.77356332  0.66579264    -0.14700
F500        F  0.64227865  0.76694595  0.66814186    -0.12300
C501        C  0.71507082  0.73394117  0.86025191     0.25700
C502        C  0.74360764  0.75681042  0.83838496    -0.22400
C503        C  0.77254187  0.77787877  0.86145819     0.20600
C504        C  0.77429858  0.77439882  0.90319668     0.25600
C505        C  0.74889741  0.74816668  0.92417770    -0.22400
C506        C  0.71856629  0.72864004  0.90214258     0.20500
F507        F  0.69356987  0.70260227  0.92079835    -0.12300
F508        F  0.68343594  0.71659243  0.84147470    -0.14700
F509        F  0.80454682  0.79327091  0.92296886    -0.14700
F510        F  0.80142173  0.80041241  0.84428804    -0.12300
C511        C  0.71758162  0.88514442  0.79553334     0.25700
C512        C  0.70846054  0.86470950  0.75978347    -0.22400
C513        C  0.69567628  0.88767080  0.72674550     0.20600
C514        C  0.69115213  0.92961715  0.72983200     0.25600
C515        C  0.69978835  0.94979371  0.76577663    -0.22400
C516        C  0.71328417  0.92696385  0.79845304     0.20500
F517        F  0.72021369  0.94511335  0.83414878    -0.12300
F518        F  0.72872006  0.86442666  0.82850576    -0.14700
F519        F  0.67641076  0.95028903  0.69826284    -0.14700
F520        F  0.68767136  0.86956868  0.69126594    -0.12300
C521        C  0.84981061  0.78074828  0.75398331     0.25700
C522        C  0.82114933  0.79376394  0.72582387    -0.22400
C523        C  0.83523895  0.80898022  0.68962896     0.20600
C524        C  0.87589993  0.80748834  0.68014604     0.25600
C525        C  0.90558115  0.79745241  0.70911472    -0.22400
C526        C  0.89133365  0.78411206  0.74651326     0.20500
F527        F  0.91710335  0.77372928  0.77594565    -0.12300
F528        F  0.83775856  0.76281944  0.78813302    -0.14700
F529        F  0.88534103  0.81388097  0.64131910    -0.14700
F530        F  0.80933275  0.82376793  0.66218934    -0.12300
C531        C  0.74713824  0.62429227  0.78682737     0.25700
C532        C  0.71359532  0.60439115  0.77061069    -0.22400
C533        C  0.68302057  0.62795140  0.75376658     0.20600
C534        C  0.68480603  0.66992026  0.75498556     0.25600
C535        C  0.71831091  0.69009407  0.77110180    -0.22400
C536        C  0.74985120  0.66659246  0.78641024     0.20500
F537        F  0.78335990  0.68445275  0.80106278    -0.12300
F538        F  0.77623742  0.60287067  0.80512328    -0.14700
F539        F  0.65253495  0.69076688  0.74205598    -0.14700
F540        F  0.64945148  0.61006299  0.73910255    -0.12300
C541        C  0.59646019  0.54807176  0.91318068     0.25700
C542        C  0.56235281  0.52396645  0.90727193    -0.22400
C543        C  0.55943982  0.49921894  0.87342266     0.20600
C544        C  0.59044587  0.49885211  0.84563721     0.25600
C545        C  0.62473765  0.52256194  0.85219902    -0.22400
C546        C  0.62755925  0.54691315  0.88619372     0.20500
F547        F  0.66124840  0.56850820  0.89407025    -0.12300
F548        F  0.60111075  0.57070957  0.94665290    -0.14700
F549        F  0.58700478  0.47564504  0.81242670    -0.14700
F550        F  0.52688933  0.47540958  0.86750707    -0.12300
C551        C  0.72686417  0.16881705  0.79344772     0.25700
C552        C  0.71717933  0.18993671  0.75837736    -0.22400
C553        C  0.70306107  0.16764233  0.72520514     0.20600
C554        C  0.69699163  0.12587680  0.72777923     0.25600
C555        C  0.70581335  0.10510439  0.76312004    -0.22400
C556        C  0.72150697  0.12706240  0.79564401     0.20500
F557        F  0.72898783  0.10825856  0.83075722    -0.12300
F558        F  0.73943212  0.18877316  0.82658921    -0.14700
F559        F  0.68035573  0.10601124  0.69642067    -0.14700
F560        F  0.69498097  0.18620559  0.69013967    -0.12300
C561        C  0.69773197  0.38133537  0.75128958     0.25700
C562        C  0.73262317  0.36340972  0.76648210    -0.22400
C563        C  0.76231326  0.38887620  0.78309440     0.20600
C564        C  0.75633117  0.43075288  0.78580516     0.25600
C565        C  0.72120923  0.44825480  0.77074117    -0.22400
C566        C  0.69262445  0.42296250  0.75252518     0.20500
F567        F  0.65788602  0.43855659  0.73855858    -0.12300
F568        F  0.66723278  0.35847370  0.73693703    -0.14700
F569        F  0.78394979  0.45391706  0.80481328    -0.14700
F570        F  0.79722509  0.37336771  0.79657420    -0.12300
C571        C  0.48608250  0.18107603  0.57573598     0.25700
C572        C  0.51088375  0.18090540  0.60962780    -0.22400
C573        C  0.53940628  0.15026525  0.61411356     0.20600
C574        C  0.54066943  0.11872451  0.58711588     0.25600
C575        C  0.51269384  0.11657830  0.55592183    -0.22400
C576        C  0.48659176  0.14874491  0.54928231     0.20500
F577        F  0.46057546  0.14810472  0.51811788    -0.12300
F578        F  0.46027813  0.21165204  0.56917681    -0.14700
F579        F  0.56658622  0.08829169  0.59408207    -0.14700
F580        F  0.56363491  0.14854612  0.64666576    -0.12300
C581        C  0.63929033  0.27930632  0.69508023     0.25700
C582        C  0.65768682  0.25924993  0.72728222    -0.22400
C583        C  0.63181967  0.24106195  0.75568252     0.20600
C584        C  0.58988121  0.23963981  0.74960109     0.25600
C585        C  0.57221607  0.25898800  0.71674824    -0.22400
C586        C  0.59759506  0.28127947  0.69151803     0.20500
F587        F  0.58188943  0.30092282  0.65970946    -0.12300
F588        F  0.66120636  0.29478258  0.66480881    -0.14700
F589        F  0.56687035  0.21746780  0.77460022    -0.14700
F590        F  0.64678363  0.22424664  0.78931809    -0.12300
C591        C  0.40195555  0.27117424  0.72787632     0.25700
C592        C  0.41643609  0.23612700  0.70963980    -0.22400
C593        C  0.38779393  0.20567370  0.70031322     0.20600
C594        C  0.34656579  0.21129237  0.70669187     0.25600
C595        C  0.33241552  0.24575236  0.72621451    -0.22400
C596        C  0.36090986  0.27575135  0.73610917     0.20500
F597        F  0.34910186  0.31042442  0.75323411    -0.12300
F598        F  0.42718813  0.30205134  0.73637137    -0.14700
F599        F  0.32048120  0.18313612  0.69291259    -0.14700
F600        F  0.39943945  0.16986952  0.68500255    -0.12300
C601        C  0.27498287  0.91955327  0.73663434     0.25700
C602        C  0.25922571  0.93808309  0.77092109    -0.22400
C603        C  0.23960926  0.91322925  0.79889789     0.20600
C604        C  0.23894753  0.87134066  0.79481414     0.25600
C605        C  0.25495452  0.85236921  0.76082547    -0.22400
C606        C  0.27205422  0.87744302  0.73117279     0.20500
F607        F  0.28634542  0.86132178  0.69688437    -0.12300
F608        F  0.29520909  0.94186359  0.70947986    -0.14700
F609        F  0.22510658  0.84948607  0.82598395    -0.14700
F610        F  0.22455169  0.92949821  0.83285490    -0.12300
C611        C  0.31122334  0.12285265  0.77814976     0.25700
C612        C  0.27909805  0.09544866  0.77188875    -0.22400
C613        C  0.24260537  0.11147562  0.75868034     0.20600
C614        C  0.23814369  0.15328730  0.75326317     0.25600
C615        C  0.26949680  0.18070446  0.76250088    -0.22400
C616        C  0.30572033  0.16455387  0.77611757     0.20500
F617        F  0.33575407  0.18902096  0.78874219    -0.12300
F618        F  0.34818199  0.10925690  0.78785584    -0.14700
F619        F  0.20262010  0.16685194  0.73935562    -0.14700
F620        F  0.21060973  0.08699650  0.75263697    -0.12300
C621        C  0.21649077  0.23830292  0.35901610     0.25700
C622        C  0.23988858  0.26424557  0.33476275    -0.22400
C623        C  0.26299344  0.29372462  0.35506924     0.20600
C624        C  0.26198010  0.29762870  0.39678171     0.25600
C625        C  0.23559475  0.27471099  0.42025720    -0.22400
C626        C  0.21340325  0.24435395  0.40081574     0.20500
F627        F  0.18686178  0.22202449  0.42190303    -0.12300
F628        F  0.19618911  0.20704549  0.34254739    -0.14700
F629        F  0.28354837  0.32767684  0.41406539    -0.14700
F630        F  0.28478689  0.32139452  0.33503371    -0.12300
C631        C  0.24772755  0.27448280  0.59235603     0.25700
C632        C  0.21208865  0.28881827  0.57536506    -0.22400
C633        C  0.18071174  0.29876817  0.60215182     0.20600
C634        C  0.18631068  0.29849852  0.64385211     0.25600
C635        C  0.22173293  0.28370863  0.66086864    -0.22400
C636        C  0.25220091  0.27135130  0.63420590     0.20500
F637        F  0.28689946  0.25627282  0.64846880    -0.12300
F638        F  0.27906621  0.26490917  0.56863503    -0.14700
F639        F  0.15693706  0.31318368  0.66749864    -0.14700
F640        F  0.14425056  0.30950537  0.58797186    -0.12300
C641        C  0.13037223  0.38350695  0.44754471     0.25700
C642        C  0.16060275  0.38652903  0.47683441    -0.22400
C643        C  0.16208402  0.42049559  0.50180253     0.20600
C644        C  0.13116810  0.44826695  0.50080542     0.25600
C645        C  0.09946933  0.44320279  0.47372431    -0.22400
C646        C  0.10046217  0.41212654  0.44558826     0.20500
F647        F  0.07000774  0.40675865  0.41918137    -0.12300
F648        F  0.12718476  0.35083069  0.42343023    -0.14700
F649        F  0.13113819  0.47899098  0.52750139    -0.14700
F650        F  0.19227861  0.42566883  0.52853040    -0.12300
C651        C  0.03633850  0.88483696  0.61834687     0.25700
C652        C  0.00433050  0.85742732  0.61727122    -0.22400
C653        C  0.97766990  0.85736397  0.58488630     0.20600
C654        C  0.98107966  0.88637236  0.55544379     0.25600
C655        C  0.01146174  0.91550769  0.55792243    -0.22400
C656        C  0.04008332  0.91356189  0.58861875     0.20500
F657        F  0.06988509  0.94124395  0.59164111    -0.12300
F658        F  0.06231709  0.88566501  0.64956300    -0.14700
F659        F  0.95407981  0.88659426  0.52509810    -0.14700
F660        F  0.94770508  0.82982416  0.58237446    -0.12300
C661        C  0.97960503  0.10950472  0.38743872     0.25700
C662        C  0.00325529  0.11025074  0.42196284    -0.22400
C663        C  0.02475905  0.14504257  0.43237496     0.20600
C664        C  0.02310663  0.17872751  0.40784210     0.25600
C665        C  0.00028982  0.17751878  0.37265192    -0.22400
C666        C  0.97838827  0.14274459  0.36274321     0.20500
F667        F  0.95769637  0.14004185  0.32788400    -0.12300
F668        F  0.95938318  0.07576187  0.37647825    -0.14700
F669        F  0.04401825  0.21225974  0.41803982    -0.14700
F670        F  0.04695215  0.14643703  0.46633902    -0.12300
C671        C  0.99627070  0.93435960  0.36575203     0.25700
C672        C  0.02023146  0.93472979  0.40008759    -0.22400
C673        C  0.04029233  0.89985170  0.41189953     0.20600
C674        C  0.03484160  0.86432715  0.39058450     0.25600
C675        C  0.00975079  0.86354537  0.35687989    -0.22400
C676        C  0.99139029  0.89904566  0.34396310     0.20500
F677        F  0.96876022  0.89948433  0.31027279    -0.12300
F678        F  0.97672850  0.96795454  0.35411137    -0.14700
F679        F  0.05258917  0.83031236  0.40385160    -0.14700
F680        F  0.06234216  0.89935052  0.44600686    -0.12300
C681        C  0.10308860  0.22539546  0.68364507     0.25700
C682        C  0.07447122  0.23343364  0.71388569    -0.22400
C683        C  0.08873884  0.25135604  0.74934170     0.20600
C684        C  0.12997633  0.25980393  0.75455784     0.25600
C685        C  0.15847706  0.24911495  0.72521916    -0.22400
C686        C  0.14424302  0.23034581  0.69040794     0.20500
F687        F  0.17016007  0.21590642  0.66289700    -0.12300
F688        F  0.09136288  0.21187745  0.64714699    -0.14700
F689        F  0.14206360  0.27816259  0.78874744    -0.14700
F690        F  0.06314357  0.25948233  0.77959373    -0.12300
C691        C  0.90293193  0.26901886  0.70943882     0.25700
C692        C  0.91752974  0.23342333  0.72653650    -0.22400
C693        C  0.88949089  0.20726786  0.74452218     0.20600
C694        C  0.84834430  0.21469847  0.74280198     0.25600
C695        C  0.83347737  0.25014071  0.72573977    -0.22400
C696        C  0.86155516  0.27766462  0.70973078     0.20500
F697        F  0.84911432  0.31314184  0.69448904    -0.12300
F698        F  0.92841708  0.29453257  0.69074743    -0.14700
F699        F  0.82297539  0.18586550  0.75623691    -0.14700
F700        F  0.90192218  0.17246911  0.76137169    -0.12300
C701        C  0.01607753  0.09763788  0.65273939     0.25700
C702        C  0.98880152  0.12961062  0.65223043    -0.22400
C703        C  0.96210518  0.13332146  0.61977751     0.20600
C704        C  0.96407966  0.10689117  0.58779992     0.25600
C705        C  0.99370603  0.07746090  0.58688827    -0.22400
C706        C  0.01906464  0.07222219  0.61982998     0.20500
F707        F  0.04688087  0.04271811  0.61994815    -0.12300
F708        F  0.04054018  0.09167131  0.68454825    -0.14700
F709        F  0.93900612  0.11210020  0.55629956    -0.14700
F710        F  0.93615878  0.16439408  0.61721205    -0.12300
C711        C  0.40664252  0.21913258  0.29402565     0.25700
C712        C  0.42825352  0.20579219  0.26047816    -0.22400
C713        C  0.40705031  0.19923173  0.22467969     0.20600
C714        C  0.36532703  0.20525509  0.22265615     0.25600
C715        C  0.34360526  0.21797148  0.25645202    -0.22400
C716        C  0.36511443  0.22558310  0.29194384     0.20500
F717        F  0.34561109  0.23747599  0.32536833    -0.12300
F718        F  0.42567402  0.22434316  0.32951732    -0.14700
F719        F  0.34620048  0.19904693  0.18738813    -0.14700
F720        F  0.42651651  0.18527734  0.19204409    -0.12300
C721        C  0.54197728  0.11440349  0.35975687     0.25700
C722        C  0.51464096  0.10739326  0.32832298    -0.22400
C723        C  0.48854073  0.07428328  0.33029775     0.20600
C724        C  0.48776506  0.05044805  0.36443959     0.25600
C725        C  0.51372511  0.05892640  0.39637212    -0.22400
C726        C  0.54183516  0.08994585  0.39324471     0.20500
F727        F  0.56650283  0.09906902  0.42428387    -0.12300
F728        F  0.56646921  0.14703585  0.35984903    -0.14700
F729        F  0.46087923  0.01989874  0.36695091    -0.14700
F730        F  0.46288186  0.06597016  0.29988044    -0.12300
C731        C  0.64821237  0.20664104  0.22048891     0.25700
C732        C  0.66797333  0.22277995  0.25438072    -0.22400
C733        C  0.64429943  0.23396570  0.28727064     0.20600
C734        C  0.60260482  0.22809777  0.28677979     0.25600
C735        C  0.58316140  0.21057767  0.25360432    -0.22400
C736        C  0.60656133  0.20003092  0.22044915     0.20500
F737        F  0.58933104  0.18111463  0.18881683    -0.12300
F738        F  0.66914641  0.19693290  0.18724582    -0.14700
F739        F  0.58142856  0.23650244  0.32024585    -0.14700
F740        F  0.66167990  0.24828915  0.32110404    -0.12300
C741        C  0.86263128  0.28122293  0.27841912     0.25700
C742        C  0.84253243  0.24606176  0.26557719    -0.22400
C743        C  0.86601746  0.21323521  0.25354617     0.20600
C744        C  0.90802365  0.21483188  0.25607830     0.25600
C745        C  0.92804580  0.24919626  0.27082970    -0.22400
C746        C  0.90471721  0.28259648  0.28131694     0.20500
F747        F  0.92263800  0.31579139  0.29682390    -0.12300
F748        F  0.84153147  0.31440091  0.28840018    -0.14700
F749        F  0.92918170  0.18130074  0.24742220    -0.14700
F750        F  0.84829633  0.17847221  0.24163552    -0.12300
C751        C  0.67722728  0.52021965  0.07180259     0.25700
C752        C  0.68026866  0.49011891  0.10107338    -0.22400
C753        C  0.65124348  0.45912963  0.10159295     0.20600
C754        C  0.61800235  0.46085375  0.07671868     0.25600
C755        C  0.61228954  0.49410887  0.05194932    -0.22400
C756        C  0.64290593  0.52281287  0.04817141     0.20500
F757        F  0.63877325  0.55434942  0.02299420    -0.12300
F758        F  0.70614928  0.54867173  0.06793062    -0.14700
F759        F  0.58915707  0.43228232  0.08046201    -0.14700
F760        F  0.65206435  0.42950167  0.12928924    -0.12300
C761        C  0.77358897  0.36019790  0.21034891     0.25700
C762        C  0.73954351  0.33890505  0.22380261    -0.22400
C763        C  0.70587739  0.36131314  0.23533375     0.20600
C764        C  0.70541182  0.40341694  0.23109233     0.25600
C765        C  0.73866294  0.42427687  0.21556972    -0.22400
C766        C  0.77294767  0.40209367  0.20596085     0.20500
F767        F  0.80504106  0.42085072  0.18957596    -0.12300
F768        F  0.80766558  0.34045785  0.20090193    -0.14700
F769        F  0.67116126  0.42353258  0.23896200    -0.14700
F770        F  0.67239405  0.34232941  0.24830804    -0.12300
C771        C  0.74705132  0.75746413  0.09766425     0.25700
C772        C  0.75973976  0.72163911  0.07945799    -0.22400
C773        C  0.76811867  0.68890332  0.10519937     0.20600
C774        C  0.76827867  0.69314942  0.14698226     0.25600
C775        C  0.75580138  0.72891855  0.16539813    -0.22400
C776        C  0.74447227  0.76080770  0.13977156     0.20500
F777        F  0.73112423  0.79579923  0.15534983    -0.12300
F778        F  0.73866585  0.78996160  0.07492438    -0.14700
F779        F  0.78346897  0.66277861  0.16894584    -0.14700
F780        F  0.77781942  0.65247920  0.08987646    -0.12300
C781        C  0.69097203  0.60733134  0.20036707     0.25700
C782        C  0.72052989  0.57936551  0.21250972    -0.22400
C783        C  0.75224574  0.59403747  0.23627153     0.20600
C784        C  0.75553941  0.63532277  0.24523186     0.25600
C785        C  0.72828347  0.66329328  0.22931885    -0.22400
C786        C  0.69582415  0.64870776  0.20707587     0.20500
F787        F  0.66922913  0.67458483  0.19083477    -0.12300
F788        F  0.65731993  0.59477185  0.18121634    -0.14700
F789        F  0.78715703  0.64837089  0.26719792    -0.14700
F790        F  0.78141010  0.56896018  0.24896081    -0.12300
C791        C  0.85576893  0.79758809  0.25976437     0.25700
C792        C  0.83472502  0.76423667  0.27546392    -0.22400
C793        C  0.85812086  0.73352077  0.29308967     0.20600
C794        C  0.90010197  0.73723521  0.29686096     0.25600
C795        C  0.92035811  0.77124860  0.28246191    -0.22400
C796        C  0.89754598  0.80105020  0.26350962     0.20500
F797        F  0.91579858  0.83482958  0.24993823    -0.12300
F798        F  0.83633866  0.82806574  0.24169486    -0.14700
F799        F  0.92077535  0.70824224  0.31620620    -0.14700
F800        F  0.84068783  0.69929723  0.30635833    -0.12300
C801        C  0.72419078  0.30518967  0.89591093     0.25700
C802        C  0.75995574  0.29897752  0.91722682    -0.22400
C803        C  0.79503779  0.29172256  0.89509419     0.20600
C804        C  0.79439047  0.29096322  0.85303281     0.25600
C805        C  0.75887538  0.29848181  0.83175197    -0.22400
C806        C  0.72360703  0.30482853  0.85379071     0.20500
F807        F  0.68831187  0.31012786  0.83450318    -0.12300
F808        F  0.69005706  0.31358724  0.91596010    -0.14700
F809        F  0.82888273  0.28405285  0.83297860    -0.14700
F810        F  0.83049032  0.28732205  0.91435335    -0.12300
C811        C  0.78911950  0.27254294  0.09012385     0.25700
C812        C  0.75331279  0.28532365  0.07190737    -0.22400
C813        C  0.71970988  0.29072875  0.09641749     0.20600
C814        C  0.72221402  0.28510975  0.13802047     0.25600
C815        C  0.75876159  0.27472027  0.15659784    -0.22400
C816        C  0.79181966  0.26724971  0.13178866     0.20500
F817        F  0.82766911  0.25754307  0.14801954    -0.12300
F818        F  0.82269734  0.26881712  0.06780952    -0.14700
F819        F  0.68876442  0.29043078  0.16019465    -0.14700
F820        F  0.68502937  0.30419566  0.08032136    -0.12300
C821        C  0.58358931  0.05501120  0.90496768     0.25700
C822        C  0.55134376  0.02808991  0.90372980    -0.22400
C823        C  0.54413246  0.00500365  0.86939222     0.20600
C824        C  0.56989915  0.00786588  0.83690390     0.25600
C825        C  0.60371167  0.03301144  0.83901503    -0.22400
C826        C  0.60995748  0.05711292  0.87306961     0.20500
F827        F  0.64314186  0.08049124  0.87681369    -0.12300
F828        F  0.59132897  0.07695561  0.93835398    -0.14700
F829        F  0.56245178  0.98540629  0.80381386    -0.14700
F830        F  0.51249606  0.97938662  0.86759504    -0.12300
C831        C  0.33166240  0.02890883  0.90857799     0.25700
C832        C  0.33794206  0.00687842  0.87336724    -0.22400
C833        C  0.37165790  0.98226497  0.86983464     0.20600
C834        C  0.39901284  0.98007286  0.90080009     0.25600
C835        C  0.39372735  0.00338792  0.93526886    -0.22400
C836        C  0.35974800  0.02746280  0.93933970     0.20500
F837        F  0.35408115  0.04975542  0.97279076    -0.12300
F838        F  0.29873444  0.05211511  0.91286529    -0.14700
F839        F  0.43228514  0.95747561  0.89574264    -0.14700
F840        F  0.37944082  0.96220467  0.83539611    -0.12300
C841        C  0.75760632  0.09883668  0.19856343     0.25700
C842        C  0.73463767  0.07575715  0.22533555    -0.22400
C843        C  0.71617591  0.09580307  0.25720751     0.20600
C844        C  0.71891248  0.13795008  0.26088123     0.25600
C845        C  0.73796040  0.16155314  0.23118127    -0.22400
C846        C  0.75774158  0.14085219  0.20025450     0.20500
F847        F  0.77470015  0.16080145  0.16939037    -0.12300
F848        F  0.77578588  0.08061909  0.16722758    -0.14700
F849        F  0.70235138  0.15543339  0.29341570    -0.14700
F850        F  0.69315568  0.07492088  0.28326339    -0.12300
C851        C  0.74178958  0.90647867  0.24628154     0.25700
C852        C  0.70844148  0.92028937  0.22457212    -0.22400
C853        C  0.67872214  0.89121197  0.21423167     0.20600
C854        C  0.68523251  0.84996524  0.21953866     0.25600
C855        C  0.71917908  0.83640032  0.23990426    -0.22400
C856        C  0.74612461  0.86540475  0.25506451     0.20500
F857        F  0.77626709  0.85407989  0.27955709    -0.12300
F858        F  0.77089553  0.93225037  0.25840605    -0.14700
F859        F  0.65793021  0.82332151  0.20511060    -0.14700
F860        F  0.64272253  0.90243750  0.19930411    -0.12300
C861        C  0.62227160  0.99303257  0.06070702     0.25700
C862        C  0.58985721  0.01868475  0.06768011    -0.22400
C863        C  0.58927889  0.04302561  0.10179963     0.20600
C864        C  0.61934233  0.03971902  0.13010128     0.25600
C865        C  0.65099943  0.01274964  0.12415676    -0.22400
C866        C  0.65293474  0.99027873  0.08876466     0.20500
F867        F  0.68398925  0.96520236  0.08181312    -0.12300
F868        F  0.62375771  0.97013496  0.02717498    -0.14700
F869        F  0.61596098  0.06087634  0.16462991    -0.14700
F870        F  0.55791313  0.06755124  0.10944692    -0.12300
C871        C  0.92102626  0.64354774  0.00268567     0.25700
C872        C  0.91649650  0.61032401  0.97721692    -0.22400
C873        C  0.88324497  0.60770557  0.95170759     0.20600
C874        C  0.85303408  0.63593650  0.95430859     0.25600
C875        C  0.85622790  0.66790245  0.98163882    -0.22400
C876        C  0.89127603  0.67254444  0.00445926     0.20500
F877        F  0.89601883  0.70433197  0.02948700    -0.12300
F878        F  0.95352614  0.64714084  0.02682579    -0.14700
F879        F  0.81920525  0.62994606  0.93253247    -0.14700
F880        F  0.87797660  0.57569658  0.92704066    -0.12300
C881        C  0.87235472  0.42800619  0.03864360     0.25700
C882        C  0.87615206  0.45498352  0.00695244    -0.22400
C883        C  0.84503388  0.45886602  0.97912441     0.20600
C884        C  0.81190733  0.43344354  0.98101302     0.25600
C885        C  0.81061334  0.40255232  0.00954489    -0.22400
C886        C  0.84029794  0.40138419  0.03959214     0.20500
F887        F  0.84104973  0.37190957  0.06745591    -0.12300
F888        F  0.90183371  0.42439728  0.06634074    -0.14700
F889        F  0.78235776  0.43738818  0.95345495    -0.14700
F890        F  0.84745635  0.48623548  0.94928170    -0.12300
C891        C  0.24095848  0.74089773  0.08983439     0.25700
C892        C  0.22478981  0.70474899  0.07448385    -0.22400
C893        C  0.21668552  0.67393137  0.10289004     0.20600
C894        C  0.21914114  0.68085398  0.14411030     0.25600
C895        C  0.23540040  0.71660319  0.15922949    -0.22400
C896        C  0.24747396  0.74600551  0.13132597     0.20500
F897        F  0.26685766  0.77944647  0.14405141    -0.12300
F898        F  0.25037899  0.77165038  0.06515956    -0.14700
F899        F  0.20501572  0.65225020  0.16918106    -0.14700
F900        F  0.20709058  0.63604526  0.09125152    -0.12300
C901        C  0.26306894  0.72064875  0.89667818     0.25700
C902        C  0.22853325  0.72894184  0.91896129    -0.22400
C903        C  0.19549331  0.74545838  0.89859320     0.20600
C904        C  0.19544551  0.74988824  0.85692180     0.25600
C905        C  0.22916166  0.73964308  0.83413665    -0.22400
C906        C  0.26372262  0.72676296  0.85497261     0.20500
F907        F  0.29820903  0.71966392  0.83502461    -0.12300
F908        F  0.29531907  0.70419845  0.91487161    -0.14700
F909        F  0.16111713  0.76149129  0.83877622    -0.14700
F910        F  0.16121546  0.75298108  0.91881750    -0.12300
C911        C  0.11193056  0.63289831  0.95185990     0.25700
C912        C  0.14443392  0.62609883  0.97757675    -0.22400
C913        C  0.14645573  0.59040108  0.99956754     0.20600
C914        C  0.11488001  0.56318068  0.99822612     0.25600
C915        C  0.08148631  0.57106517  0.97427093    -0.22400
C916        C  0.08060113  0.60527704  0.95007190     0.20500
F917        F  0.04788292  0.61368318  0.92758067    -0.12300
F918        F  0.10912620  0.66755495  0.93085205    -0.14700
F919        F  0.11612446  0.52984388  0.02138354    -0.14700
F920        F  0.17843103  0.58264230  0.02331182    -0.12300
C921        C  0.73795421  0.76817508  0.63250117     0.25700
C922        C  0.76209013  0.75416689  0.66419427    -0.22400
C923        C  0.79564893  0.73124688  0.65457928     0.20600
C924        C  0.80484388  0.72273071  0.61468761     0.25600
C925        C  0.77834345  0.73266966  0.58300118    -0.22400
C926        C  0.74519688  0.75662286  0.59257658     0.20500
F927        F  0.71925588  0.76820389  0.56370707    -0.12300
F928        F  0.70789842  0.79411901  0.64005076    -0.14700
F929        F  0.84012137  0.70444154  0.60719737    -0.14700
F930        F  0.81988234  0.71710126  0.68382891    -0.12300
C931        C  0.75801527  0.69514536  0.40216758     0.25700
C932        C  0.77676858  0.72438678  0.42644521    -0.22400
C933        C  0.79169315  0.75910849  0.40769890     0.20600
C934        C  0.78834547  0.76392868  0.36576377     0.25600
C935        C  0.77150080  0.73331297  0.34131193    -0.22400
C936        C  0.75671301  0.69878971  0.36058137     0.20500
F937        F  0.74245868  0.66715454  0.33923153    -0.12300
F938        F  0.74274898  0.66129587  0.41886136    -0.14700
F939        F  0.80137536  0.79872659  0.34929070    -0.14700
F940        F  0.81071680  0.78768415  0.42966389    -0.12300
C941        C  0.86552102  0.61444704  0.54044107     0.25700
C942        C  0.83707611  0.61914568  0.50975154    -0.22400
C943        C  0.83511951  0.59021086  0.47903266     0.20600
C944        C  0.86388586  0.56012568  0.47671561     0.25600
C945        C  0.89388616  0.55755355  0.50597408    -0.22400
C946        C  0.89299751  0.58346801  0.53898954     0.20500
F947        F  0.92142379  0.58167218  0.56794758    -0.12300
F948        F  0.86966343  0.64192270  0.57004242    -0.14700
F949        F  0.86329649  0.53447165  0.44517205    -0.14700
F950        F  0.80639378  0.59194706  0.45038721    -0.12300
C951        C  0.29102865  0.84818888  0.27550460     0.25700
C952        C  0.27182241  0.82840690  0.24299913    -0.22400
C953        C  0.25426070  0.85350606  0.21367558     0.20600
C954        C  0.25750134  0.89555434  0.21573030     0.25600
C955        C  0.27922627  0.91458511  0.24630829    -0.22400
C956        C  0.29584381  0.89031204  0.27626935     0.20500
F957        F  0.31848615  0.90734049  0.30549272    -0.12300
F958        F  0.30497601  0.82721543  0.30716032    -0.14700
F959        F  0.24209078  0.91780249  0.18555520    -0.14700
F960        F  0.23523535  0.83811580  0.18141117    -0.12300
C961        C  0.36961967  0.96664880  0.13473744     0.25700
C962        C  0.37605813  0.99082994  0.16864602    -0.22400
C963        C  0.40951670  0.01642417  0.17036308     0.20600
C964        C  0.43540755  0.01882594  0.13791488     0.25600
C965        C  0.42835456  0.99518662  0.10387200    -0.22400
C966        C  0.39588623  0.96852820  0.10274513     0.20500
F967        F  0.38791135  0.94656645  0.06943057    -0.12300
F968        F  0.33637952  0.94328012  0.13139829    -0.14700
F969        F  0.46703993  0.04448980  0.13944714    -0.14700
F970        F  0.41654592  0.03961041  0.20304791    -0.12300
C971        C  0.25572948  0.08993906  0.20997087     0.25700
C972        C  0.27697810  0.07069262  0.24070061    -0.22400
C973        C  0.29351100  0.09475831  0.27106309     0.20600
C974        C  0.29037520  0.13685889  0.26995480     0.25600
C975        C  0.27226791  0.15674296  0.23719398    -0.22400
C976        C  0.25328537  0.13215937  0.20821367     0.20500
F977        F  0.23367822  0.14851495  0.17690382    -0.12300
F978        F  0.23962759  0.06776637  0.17986709    -0.14700
F979        F  0.30492374  0.15789747  0.30153672    -0.14700
F980        F  0.31496228  0.07751531  0.30081062    -0.12300
C981        C  0.20791497  0.33379150  0.89285828     0.25700
C982        C  0.21536874  0.30275238  0.92077542    -0.22400
C983        C  0.23277713  0.26735437  0.90592540     0.20600
C984        C  0.24034902  0.26247039  0.86459374     0.25600
C985        C  0.22986663  0.29237121  0.83651563    -0.22400
C986        C  0.21330183  0.32802566  0.85161074     0.20500
F987        F  0.19954807  0.35660452  0.82651810    -0.12300
F988        F  0.19383026  0.36982457  0.90535093    -0.14700
F989        F  0.25761957  0.22797904  0.85199765    -0.14700
F990        F  0.24084734  0.23661859  0.93108225    -0.12300
C991        C  0.07365809  0.34986354  0.97732438     0.25700
C992        C  0.10459309  0.35205998  0.00589839    -0.22400
C993        C  0.10347592  0.38273927  0.03490947     0.20600
C994        C  0.07349900  0.41140869  0.03426880     0.25600
C995        C  0.04456072  0.41107346  0.00383226    -0.22400
C996        C  0.04423975  0.37949007  0.97593181     0.20500
F997        F  0.01606443  0.37781014  0.94672385    -0.12300
F998        F  0.07249215  0.31972547  0.95001697    -0.14700
F999        F  0.07509476  0.44157326  0.06157953    -0.14700
F1000       F  0.13329818  0.38741817  0.06204451    -0.12300
C1001       C  0.21299653  0.32076801  0.10761546     0.25700
C1002       C  0.21778041  0.29147612  0.07729017    -0.22400
C1003       C  0.23375038  0.25426875  0.08867865     0.20600
C1004       C  0.24370898  0.24649608  0.12905175     0.25600
C1005       C  0.23645702  0.27498628  0.15961460    -0.22400
C1006       C  0.22050927  0.31215904  0.14800034     0.20500
F1007       F  0.21015709  0.33983999  0.17576754    -0.12300
F1008       F  0.19940511  0.35784631  0.09827620    -0.14700
F1009       F  0.26073849  0.21091772  0.13816827    -0.14700
F1010       F  0.23817414  0.22477419  0.06109287    -0.12300
C1011       C  0.24764007  0.42589874  0.76851092     0.25700
C1012       C  0.27964769  0.43792573  0.79360476    -0.22400
C1013       C  0.30562699  0.40710940  0.80723707     0.20600
C1014       C  0.29710687  0.36635328  0.80032531     0.25600
C1015       C  0.26548551  0.35476501  0.77532823    -0.22400
C1016       C  0.24166780  0.38510384  0.75840192     0.20500
F1017       F  0.21066070  0.37490720  0.73413041    -0.12300
F1018       F  0.22088470  0.45309573  0.75496640    -0.14700
F1019       F  0.31988716  0.33816092  0.81843316    -0.14700
F1020       F  0.34013232  0.41601085  0.82681757    -0.12300
C1021       C  0.29405717  0.65949247  0.75984029     0.25700
C1022       C  0.25701834  0.67699980  0.76914492    -0.22400
C1023       C  0.22584454  0.65165247  0.78232883     0.20600
C1024       C  0.23226076  0.61045070  0.78839730     0.25600
C1025       C  0.26988240  0.59335725  0.78128329    -0.22400
C1026       C  0.30051645  0.61828031  0.76623910     0.20500
F1027       F  0.33761637  0.60314097  0.76032948    -0.12300
F1028       F  0.32483302  0.68269810  0.74689122    -0.14700
F1029       F  0.20238407  0.58765196  0.80385705    -0.14700
F1030       F  0.18903923  0.66684874  0.78969841    -0.12300
C1031       C  0.33317492  0.50782195  0.93037851     0.25700
C1032       C  0.33758108  0.53128413  0.89574874    -0.22400
C1033       C  0.37127292  0.55665524  0.89236116     0.20600
C1034       C  0.40078920  0.55683733  0.92174472     0.25600
C1035       C  0.39796664  0.53083135  0.95442765    -0.22400
C1036       C  0.36360316  0.50699832  0.95913623     0.20500
F1037       F  0.36019588  0.48198530  0.99084751    -0.12300
F1038       F  0.30011860  0.48467563  0.93568497    -0.14700
F1039       F  0.43426944  0.57931558  0.91599403    -0.14700
F1040       F  0.37769352  0.57860204  0.85887393    -0.12300
C1041       C  0.39302056  0.74136088  0.31240663     0.25700
C1042       C  0.41942763  0.76275063  0.28749074    -0.22400
C1043       C  0.40342282  0.78112659  0.25324978     0.20600
C1044       C  0.36200794  0.77890116  0.24479316     0.25600
C1045       C  0.33522833  0.75975718  0.27138320    -0.22400
C1046       C  0.35171846  0.74120073  0.30544734     0.20500
F1047       F  0.32784889  0.72511783  0.33396708    -0.12300
F1048       F  0.40705707  0.72362042  0.34606462    -0.14700
F1049       F  0.34818248  0.79598335  0.21079393    -0.14700
F1050       F  0.42748610  0.80326788  0.22924213    -0.12300
C1051       C  0.60230114  0.81360068  0.29810007     0.25700
C1052       C  0.57465024  0.78153516  0.29314476    -0.22400
C1053       C  0.58976754  0.74461471  0.27990830     0.20600
C1054       C  0.63084262  0.73999798  0.27183490     0.25600
C1055       C  0.65866354  0.77178084  0.27788524    -0.22400
C1056       C  0.64356953  0.80810204  0.29288597     0.20500
F1057       F  0.66867506  0.83806588  0.30436753    -0.12300
F1058       F  0.58950528  0.85065568  0.30885296    -0.14700
F1059       F  0.64317539  0.70374072  0.25866301    -0.14700
F1060       F  0.56515303  0.71229026  0.27634769    -0.12300
C1061       C  0.45696311  0.87480422  0.38733940     0.25700
C1062       C  0.48389985  0.84288912  0.39221505    -0.22400
C1063       C  0.50826594  0.84155817  0.42641761     0.20600
C1064       C  0.50770092  0.87309357  0.45383509     0.25600
C1065       C  0.48208710  0.90576924  0.44780831    -0.22400
C1066       C  0.45567152  0.90563929  0.41520672     0.20500
F1067       F  0.43121192  0.93723251  0.40811521    -0.12300
F1068       F  0.43417611  0.87804804  0.35389223    -0.14700
F1069       F  0.53303628  0.87234683  0.48554722    -0.14700
F1070       F  0.53347859  0.81040988  0.43260630    -0.12300
C1071       C  0.78443301  0.24088573  0.59605285     0.25700
C1072       C  0.78253160  0.27570014  0.57247662    -0.22400
C1073       C  0.77488685  0.31247310  0.59201021     0.20600
C1074       C  0.77013892  0.31449754  0.63379359     0.25600
C1075       C  0.77370525  0.27993665  0.65758785    -0.22400
C1076       C  0.77991017  0.24289815  0.63791775     0.20500
F1077       F  0.78148393  0.20838603  0.65923249    -0.12300
F1078       F  0.79290596  0.20509240  0.57874504    -0.14700
F1079       F  0.76392036  0.35073906  0.65117295    -0.14700
F1080       F  0.77417497  0.34699665  0.57063849    -0.12300
C1081       C  0.76207761  0.28874410  0.39909735     0.25700
C1082       C  0.78162506  0.25645662  0.41775116    -0.22400
C1083       C  0.79622143  0.22553152  0.39312922     0.20600
C1084       C  0.79263599  0.22743157  0.35126451     0.25600
C1085       C  0.77532801  0.26103858  0.33232262    -0.22400
C1086       C  0.75907360  0.29111622  0.35711964     0.20500
F1087       F  0.74226880  0.32421926  0.34084412    -0.12300
F1088       F  0.74895357  0.31994242  0.42152123    -0.14700
F1089       F  0.80630343  0.19610979  0.32936047    -0.14700
F1090       F  0.81644672  0.19451016  0.40964904    -0.12300
C1091       C  0.92027962  0.32921524  0.51202203     0.25700
C1092       C  0.88885679  0.32569685  0.48431357    -0.22400
C1093       C  0.88497717  0.35463260  0.45398351     0.20600
C1094       C  0.91048171  0.38751980  0.45280390     0.25600
C1095       C  0.93978918  0.39276375  0.48240988    -0.22400
C1096       C  0.94538301  0.36278525  0.51133879     0.20500
F1097       F  0.97436605  0.36649186  0.53957642    -0.12300
F1098       F  0.92562783  0.30099175  0.54065191    -0.14700
F1099       F  0.90400149  0.41598454  0.42462628    -0.14700
F1100       F  0.85418303  0.35332523  0.42748840    -0.12300
loop_ 
_geom_bond_atom_site_label_1 
_geom_bond_atom_site_label_2 
_geom_bond_distance 
_geom_bond_site_symmetry_2 
_ccdc_geom_bond_type 
C1            C2   1.395       .  A
C1            C6   1.431       .  A
C1         C1082   1.501       .  S
C2            C3   1.392       .  A
C2            H7   1.086       .  S
C3            C4   1.397       .  A
C3         C1092   1.474       .  S
C4            C5   1.400       .  A
C4            H8   1.084       .  S
C5            C6   1.432       .  A
C5         C1072   1.506       .  S
C6            H9   1.082       .  S
C10          C11   1.429       .  A
C10          C15   1.397       .  A
C10        C1042   1.501       .  S
C11          C12   1.434       .  A
C11          H16   1.083       .  S
C12          C13   1.405       .  A
C12        C1052   1.514       .  S
C13          C14   1.393       .  A
C13          H17   1.081       .  S
C14          C15   1.387       .  A
C14        C1062   1.473       .  S
C15          H18   1.085       .  S
C19          C20   1.425       .  A
C19          C24   1.395       .  A
C19        C1025   1.494       .  S
C20          C21   1.433       .  A
C20          H25   1.081       .  S
C21          C22   1.413       .  A
C21        C1012   1.528       .  S
C22          C23   1.401       .  A
C22          H26   1.078       .  S
C23          C24   1.392       .  A
C23        C1032   1.485       .  S
C24          H27   1.085       .  S
C28          C29   1.437       .  A
C28          C33   1.407       .  A
C28         C982   1.524       .  S
C29          C30   1.435   1_556  A
C29          H34   1.082       .  S
C30          C31   1.402       .  A
C30        C1002   1.517       .  S
C31          C32   1.394       .  A
C31          H35   1.084       .  S
C32          C33   1.397   1_554  A
C32         C992   1.487       .  S
C33          H36   1.081       .  S
C37          C38   1.430       .  A
C37          C42   1.396       .  A
C37         C955   1.498       .  S
C38          C39   1.430   1_565  A
C38          H43   1.081       .  S
C39          C40   1.398       .  A
C39         C972   1.499       .  S
C40          C41   1.393   1_545  A
C40          H44   1.085       .  S
C41          C42   1.392       .  A
C41         C962   1.468       .  S
C42          H45   1.086       .  S
C46          C47   1.431       .  A
C46          C51   1.400       .  A
C46         C932   1.508       .  S
C47          C48   1.435       .  A
C47          H52   1.081       .  S
C48          C49   1.405       .  A
C48         C925   1.518       .  S
C49          C50   1.393       .  A
C49          H53   1.083       .  S
C50          C51   1.393       .  A
C50         C942   1.483       .  S
C51          H54   1.085       .  S
C55          C56   1.394       .  A
C55          C60   1.435       .  A
C55         C902   1.499       .  S
C56          C57   1.381       .  A
C56          H61   1.085       .  S
C57          C58   1.391   1_556  A
C57         C912   1.465       .  S
C58          C59   1.407       .  A
C58          H62   1.081       .  S
C59          C60   1.441   1_554  A
C59         C892   1.533       .  S
C60          H63   1.081   1_556  S
O64         Ni72   1.913   1_455  S
O64          C74   1.281       .  A
O65         Ni72   1.900       .  S
O65          C75   1.278       .  A
O66         Ni72   1.907   1_455  S
O66          C76   1.278       .  A
O67         Ni72   1.905       .  S
O67          C77   1.280   1_556  A
O68         Ni73   1.900       .  S
O68          C77   1.278       .  A
O69         Ni73   1.895   1_455  S
O69          C76   1.277   1_554  A
O70         Ni73   1.903       .  S
O70          C75   1.279   1_554  A
O71         Ni73   1.903   1_455  S
O71          C74   1.279   1_554  A
Ni72        Ni73   2.394   1_556  S
C74         C995   1.473   1_556  S
C75         C872   1.459       .  S
C76         C915   1.451       .  S
C77         C882   1.458       .  S
C78          C79   1.429   1_545  A
C78          C83   1.392       .  A
C78         C842   1.498       .  S
C79          C80   1.439       .  A
C79          H84   1.081       .  S
C80          C81   1.409       .  A
C80         C852   1.523       .  S
C81          C82   1.392   1_565  A
C81          H85   1.080       .  S
C82          C83   1.381       .  A
C82         C865   1.467       .  S
C83          H86   1.086       .  S
O87         Ni95   1.906   1_556  S
O87          C97   1.279       .  A
O88         Ni95   1.899       .  S
O88          C98   1.279       .  A
O89         Ni95   1.903   1_556  S
O89          C99   1.278       .  A
O90         Ni95   1.901       .  S
O90         C100   1.278       .  A
O91         Ni96   1.907       .  S
O91         C100   1.280   1_565  A
O92         Ni96   1.904   1_556  S
O92          C99   1.279   1_565  A
O93         Ni96   1.898       .  S
O93          C98   1.278   1_565  A
O94         Ni96   1.890   1_556  S
O94          C97   1.276   1_565  A
Ni95        Ni96   2.397   1_545  S
C97         C835   1.453       .  S
C98         C862   1.455       .  S
C99         C822   1.456       .  S
C100        C965   1.456   1_545  S
C101        C102   1.397       .  A
C101        C106   1.429       .  A
C101        C802   1.502       .  S
C102        C103   1.399   1_556  A
C102        H107   1.084       .  S
C103        C104   1.393       .  A
C103        C885   1.479       .  S
C104        C105   1.396       .  A
C104        H108   1.084       .  S
C105        C106   1.429   1_554  A
C105        C812   1.498       .  S
C106        H109   1.082       .  S
C110        H111   1.105       .  S
C110        C116   1.549       .  S
C110        C115   1.554       .  S
C110        C114   1.546       .  S
C112        H113   1.106       .  S
C112        C118   1.566       .  S
C112        C117   1.558       .  S
C112        C119   1.554       .  S
C114        C117   1.388       .  D
C114       C1055   1.523       .  S
C115        C118   1.389       .  D
C115        C935   1.521       .  S
C116        C119   1.385       .  D
C116        C785   1.502       .  S
C117        C855   1.506       .  S
C118        C792   1.531       .  S
C119        C775   1.528       .  S
C120        C121   1.430       .  A
C120        C125   1.406       .  A
C120        C782   1.518       .  S
C121        C122   1.427       .  A
C121        H126   1.082       .  S
C122        C123   1.396       .  A
C122        C765   1.495       .  S
C123        C124   1.392       .  A
C123        H127   1.084       .  S
C124        C125   1.400       .  A
C124        C752   1.486       .  S
C125        H128   1.078       .  S
C129        H130   1.101       .  S
C129        C135   1.549       .  S
C129        C134   1.554       .  S
C129        C133   1.548       .  S
C131        H132   1.104       .  S
C131        C137   1.555       .  S
C131        C136   1.550       .  S
C131        C138   1.552       .  S
C133        C136   1.377       .  D
C133        C815   1.515       .  S
C134        C137   1.386       .  D
C134        C845   1.521       .  S
C135        C138   1.385       .  D
C135        C742   1.513       .  S
C136        C762   1.511       .  S
C137        C732   1.514       .  S
C138       C1085   1.519       .  S
C139        C140   1.428       .  A
C139        C144   1.402       .  A
C139        C712   1.503       .  S
C140        C141   1.427       .  A
C140        H145   1.082       .  S
C141        C142   1.394       .  A
C141        C735   1.496       .  S
C142        C143   1.392       .  A
C142        H146   1.086       .  S
C143        C144   1.399       .  A
C143        C722   1.475       .  S
C144        H147   1.084       .  S
C148        C149   1.405       .  A
C148        C153   1.437   1_455  A
C148        C682   1.522       .  S
C149        C150   1.392   1_455  A
C149        H154   1.080       .  S
C150        C151   1.386       .  A
C150        C702   1.476       .  S
C151        C152   1.398       .  A
C151        H155   1.084       .  S
C152        C153   1.435       .  A
C152        C692   1.508       .  S
C153        H156   1.082       .  S
O157       Ni165   1.894       .  S
O157        C167   1.277   1_655  A
O158       Ni165   1.897   1_565  S
O158        C168   1.279   1_655  A
O159       Ni165   1.897       .  S
O159        C169   1.277       .  A
O160       Ni165   1.893   1_565  S
O160        C170   1.276   1_655  A
O161       Ni166   1.910   1_565  S
O161        C170   1.280       .  A
O162       Ni166   1.905       .  S
O162        C169   1.279   1_455  A
O163       Ni166   1.897   1_565  S
O163        C168   1.277       .  A
O164       Ni166   1.908       .  S
O164        C167   1.279       .  A
Ni165      Ni166   2.396   1_655  S
C167        C662   1.454       .  S
C168        C655   1.458       .  S
C169        C705   1.456       .  S
C170        C672   1.453       .  S
C171        C172   1.395       .  A
C171        C176   1.435       .  A
C171        C625   1.507       .  S
C172        C173   1.385       .  A
C172        H177   1.086       .  S
C173        C174   1.394       .  A
C173        C642   1.475       .  S
C174        C175   1.405       .  A
C174        H178   1.080       .  S
C175        C176   1.440       .  A
C175        C632   1.524       .  S
C176        H179   1.082       .  S
C180        C181   1.437   1_565  A
C180        C185   1.395       .  A
C180        C602   1.509       .  S
C181        C182   1.441       .  A
C181        H186   1.083       .  S
C182        C183   1.404       .  A
C182        C612   1.519       .  S
C183        C184   1.387       .  A
C183        H187   1.082       .  S
C184        C185   1.383   1_545  A
C184        C832   1.464       .  S
C185        H188   1.085       .  S
C189        H190   1.111       .  S
C189        C195   1.554       .  S
C189        C194   1.553       .  S
C189        C193   1.554       .  S
C191        H192   1.111       .  S
C191        C197   1.559       .  S
C191        C196   1.556       .  S
C191        C198   1.554       .  S
C193        C196   1.393       .  D
C193        C635   1.524       .  S
C194        C197   1.395       .  D
C194        C595   1.522       .  S
C195        C198   1.382       .  D
C195       C1015   1.505       .  S
C196        C685   1.517       .  S
C197        C615   1.520       .  S
C198        C985   1.524       .  S
C199        C200   1.395       .  A
C199        C204   1.432       .  A
C199        C585   1.507       .  S
C200        C201   1.383       .  A
C200        H205   1.085       .  S
C201        C202   1.395       .  A
C201        C572   1.474       .  S
C202        C203   1.407       .  A
C202        H206   1.080       .  S
C203        C204   1.440       .  A
C203        C592   1.524       .  S
C204        H207   1.082       .  S
C208        H209   1.100       .  S
C208        C214   1.557       .  S
C208        C213   1.550       .  S
C208        C212   1.553       .  S
C210        H211   1.105       .  S
C210        C216   1.542       .  S
C210        C215   1.547       .  S
C210        C217   1.554       .  S
C212        C215   1.380       .  D
C212       C1075   1.516       .  S
C213        C216   1.382       .  D
C213        C562   1.510       .  S
C214        C217   1.388       .  D
C214        C582   1.528       .  S
C215        C695   1.513       .  S
C216        C805   1.507       .  S
C217        C552   1.509       .  S
C218        C219   1.400       .  A
C218        C223   1.430       .  A
C218        C565   1.496       .  S
C219        C220   1.387       .  A
C219        H224   1.086       .  S
C220        C221   1.387       .  A
C220        C545   1.461       .  S
C221        C222   1.394       .  A
C221        H225   1.085       .  S
C222        C223   1.429       .  A
C222        C532   1.497       .  S
C223        H226   1.083       .  S
C227        H228   1.101       .  S
C227        C233   1.566       .  S
C227        C232   1.553       .  S
C227        C231   1.552       .  S
C229        H230   1.106       .  S
C229        C235   1.541       .  S
C229        C234   1.544       .  S
C229        C236   1.553       .  S
C231        C234   1.382       .  D
C231        C512   1.510       .  S
C232        C235   1.381       .  D
C232        C522   1.512       .  S
C233        C236   1.395       .  D
C233        C502   1.540       .  S
C234        C492   1.516       .  S
C235        C922   1.508       .  S
C236        C535   1.509       .  S
C237        C238   1.398       .  A
C237        C242   1.423       .  A
C237        C495   1.492       .  S
C238        C239   1.398       .  A
C238        H243   1.084       .  S
C239        C240   1.392       .  A
C239        C485   1.477       .  S
C240        C241   1.395       .  A
C240        H244   1.084       .  S
C241        C242   1.422       .  A
C241        C472   1.487       .  S
C242        H245   1.084       .  S
C246        H247   1.100       .  S
C246        C252   1.552       .  S
C246        C251   1.552       .  S
C246        C250   1.548       .  S
C248        H249   1.107       .  S
C248        C254   1.550       .  S
C248        C253   1.551       .  S
C248        C255   1.546       .  S
C250        C253   1.383       .  D
C250        C455   1.511       .  S
C251        C254   1.385       .  D
C251        C605   1.523       .  S
C252        C255   1.380       .  D
C252        C905   1.515       .  S
C253        C462   1.516       .  S
C254        C475   1.504       .  S
C255       C1022   1.506       .  S
C256        C257   1.402       .  A
C256        C261   1.432       .  A
C256        C795   1.505       .  S
C257        C258   1.396   1_655  A
C257        H262   1.085       .  S
C258        C259   1.387       .  A
C258        C675   1.469       .  S
C259        C260   1.395       .  A
C259        H263   1.086       .  S
C260        C261   1.430   1_455  A
C260        C442   1.500       .  S
C261        H264   1.081       .  S
C265        H266   1.105       .  S
C265        C271   1.545       .  S
C265        C270   1.552       .  S
C265        C269   1.549       .  S
C267        H268   1.100       .  S
C267        C273   1.568       .  S
C267        C272   1.554       .  S
C267        C274   1.552       .  S
C269        C272   1.380       .  D
C269        C422   1.518       .  S
C270        C273   1.397       .  D
C270       C1045   1.518       .  S
C271        C274   1.379       .  D
C271        C432   1.506       .  S
C272        C445   1.514       .  S
C273        C952   1.535       .  S
C274        C895   1.516       .  S
C275        C276   1.427       .  A
C275        C280   1.405       .  A
C275        C435   1.515       .  S
C276        C277   1.423       .  A
C276        H281   1.080       .  S
C277        C278   1.397       .  A
C277        C402   1.500       .  S
C278        C279   1.397       .  A
C278        H282   1.080       .  S
C279        C280   1.406       .  A
C279        C412   1.502       .  S
C280        H283   1.088       .  S
C284        C285   1.432       .  A
C284        C289   1.399       .  A
C284        C425   1.502       .  S
C285        C286   1.431       .  A
C285        H290   1.082       .  S
C286        C287   1.395       .  A
C286        C465   1.500       .  S
C287        C288   1.392       .  A
C287        H291   1.086       .  S
C288        C289   1.392       .  A
C288        C395   1.468       .  S
C289        H292   1.085       .  S
C293        C294   1.406       .  A
C293        C298   1.440       .  A
C293        C525   1.532       .  S
C294        C295   1.391       .  A
C294        H299   1.081       .  S
C295        C296   1.381   1_655  A
C295        C652   1.463   1_655  S
C296        C297   1.391       .  A
C296        H300   1.085       .  S
C297        C298   1.433   1_455  A
C297        C452   1.495       .  S
C298        H301   1.082       .  S
C302        C303   1.426   1_565  A
C302        C307   1.399       .  A
C302        C515   1.497       .  S
C303        C304   1.426       .  A
C303        H308   1.081       .  S
C304        C305   1.397       .  A
C304        C555   1.493       .  S
C305        C306   1.392       .  A
C305        H309   1.086       .  S
C306        C307   1.395   1_545  A
C306        C825   1.472       .  S
C307        H310   1.085       .  S
C311        C312   1.397       .  A
C311        C316   1.432       .  A
C311        C382   1.499       .  S
C312        C313   1.391       .  A
C312        H317   1.085       .  S
C313        C314   1.390   1_455  A
C313        C665   1.464       .  S
C314        C315   1.395       .  A
C314        H318   1.087       .  S
C315        C316   1.431   1_655  A
C315        C745   1.499       .  S
C316        H319   1.081       .  S
C320        H321   1.102       .  S
C320        C326   1.561       .  S
C320        C325   1.543       .  S
C320        C324   1.546       .  S
C322        H323   1.103       .  S
C322        C328   1.562       .  S
C322        C327   1.559       .  S
C322        C329   1.562       .  S
C324        C327   1.380       .  D
C324        C405   1.502       .  S
C325        C328   1.383       .  D
C325        C715   1.515       .  S
C326        C329   1.396       .  D
C326        C622   1.535       .  S
C327       C1005   1.522       .  S
C328        C975   1.528       .  S
C329        C385   1.522       .  S
C330        C331   1.441       .  A
C330        C335   1.405       .  A
C330        C772   1.526       .  S
C331        C332   1.438   1_554  A
C331        H336   1.082       .  S
C332        C333   1.395       .  A
C332        C505   1.507       .  S
C333        C334   1.385       .  A
C333        H337   1.086       .  S
C334        C335   1.392   1_556  A
C334        C875   1.471       .  S
C335        H338   1.082       .  S
O339       Ni347   1.905       .  S
O339        C349   1.279       .  A
O340       Ni347   1.911   1_556  S
O340        C350   1.279       .  A
O341       Ni347   1.904   1_556  S
O341        C351   1.278       .  A
O342       Ni347   1.901       .  S
O342        C352   1.280       .  A
O343       Ni348   1.905       .  S
O343        C352   1.279       .  A
O344       Ni348   1.891   1_556  S
O344        C351   1.277       .  A
O345       Ni348   1.914   1_556  S
O345        C350   1.281       .  A
O346       Ni348   1.910       .  S
O346        C349   1.280       .  A
Ni347      Ni348   2.392       .  S
C349        C755   1.466       .  S
C350       C1035   1.467       .  S
C351        C542   1.456       .  S
C352        C415   1.475       .  S
O353       Ni361   1.908       .  S
O353        C363   1.280       .  A
O354       Ni361   1.907   1_565  S
O354        C364   1.280       .  A
O355       Ni361   1.903   1_565  S
O355        C365   1.279       .  A
O356       Ni361   1.897       .  S
O356        C366   1.278       .  A
O357       Ni362   1.905       .  S
O357        C366   1.280       .  A
O358       Ni362   1.901   1_565  S
O358        C365   1.279       .  A
O359       Ni362   1.902   1_565  S
O359        C364   1.278       .  A
O360       Ni362   1.898       .  S
O360        C363   1.277       .  A
Ni361      Ni362   2.395       .  S
C363        C725   1.456       .  S
C364        C482   1.460       .  S
C365       C1065   1.462       .  S
C366        C575   1.461       .  S
O367       Ni375   1.906   1_455  S
O367        C377   1.279       .  A
O368       Ni375   1.901       .  S
O368        C378   1.279       .  A
O369       Ni375   1.907       .  S
O369        C379   1.280       .  A
O370       Ni375   1.906   1_455  S
O370        C380   1.279       .  A
O371       Ni376   1.897   1_455  S
O371        C380   1.278       .  A
O372       Ni376   1.901       .  S
O372        C379   1.279       .  A
O373       Ni376   1.904       .  S
O373        C378   1.279       .  A
O374       Ni376   1.899   1_455  S
O374        C377   1.279       .  A
Ni375      Ni376   2.393       .  S
C377        C392   1.461       .  S
C378       C1095   1.466       .  S
C379        C945   1.466       .  S
C380        C645   1.456       .  S
C381        C382   1.408       .  A
C381        C386   1.411       .  A
C381        F388   1.358       .  S
C382        C383   1.408       .  A
C383        C384   1.410       .  A
C383        F390   1.358       .  S
C384        C385   1.414       .  A
C384        F389   1.357       .  S
C385        C386   1.416       .  A
C386        F387   1.355       .  S
C391        C392   1.403       .  A
C391        C396   1.386       .  A
C391        F398   1.359       .  S
C392        C393   1.406       .  A
C393        C394   1.397       .  A
C393        F400   1.358       .  S
C394        C395   1.405       .  A
C394        F399   1.358       .  S
C395        C396   1.405       .  A
C396        F397   1.359       .  S
C401        C402   1.401       .  A
C401        C406   1.407       .  A
C401        F408   1.357       .  S
C402        C403   1.418       .  A
C403        C404   1.406       .  A
C403        F410   1.357       .  S
C404        C405   1.402       .  A
C404        F409   1.358       .  S
C405        C406   1.414       .  A
C406        F407   1.354       .  S
C411        C412   1.418       .  A
C411        C416   1.388       .  A
C411        F418   1.354       .  S
C412        C413   1.412       .  A
C413        C414   1.397       .  A
C413        F420   1.358       .  S
C414        C415   1.407       .  A
C414        F419   1.358       .  S
C415        C416   1.402       .  A
C416        F417   1.359       .  S
C421        C422   1.417       .  A
C421        C426   1.413       .  A
C421        F428   1.357       .  S
C422        C423   1.409       .  A
C423        C424   1.409       .  A
C423        F430   1.355       .  S
C424        C425   1.411       .  A
C424        F429   1.358       .  S
C425        C426   1.407       .  A
C426        F427   1.357       .  S
C431        C432   1.403       .  A
C431        C436   1.408       .  A
C431        F438   1.358       .  S
C432        C433   1.411       .  A
C433        C434   1.409       .  A
C433        F440   1.356       .  S
C434        C435   1.408       .  A
C434        F439   1.357       .  S
C435        C436   1.422       .  A
C436        F437   1.358       .  S
C441        C442   1.412       .  A
C441        C446   1.404       .  A
C441        F448   1.358       .  S
C442        C443   1.406       .  A
C443        C444   1.413       .  A
C443        F450   1.357       .  S
C444        C445   1.418       .  A
C444        F449   1.357       .  S
C445        C446   1.408       .  A
C446        F447   1.357       .  S
C451        C452   1.412       .  A
C451        C456   1.405       .  A
C451        F458   1.358       .  S
C452        C453   1.408       .  A
C453        C454   1.413       .  A
C453        F460   1.357       .  S
C454        C455   1.414       .  A
C454        F459   1.357       .  S
C455        C456   1.409       .  A
C456        F457   1.358       .  S
C461        C462   1.410       .  A
C461        C466   1.410       .  A
C461        F468   1.357       .  S
C462        C463   1.415       .  A
C463        C464   1.412       .  A
C463        F470   1.357       .  S
C464        C465   1.408       .  A
C464        F469   1.357       .  S
C465        C466   1.410       .  A
C466        F467   1.358       .  S
C471        C472   1.405       .  A
C471        C476   1.405       .  A
C471        F478   1.357       .  S
C472        C473   1.409       .  A
C473        C474   1.406       .  A
C473        F480   1.358       .  S
C474        C475   1.409       .  A
C474        F479   1.358       .  S
C475        C476   1.413       .  A
C476        F477   1.357       .  S
C481        C482   1.401       .  A
C481        C486   1.388       .  A
C481        F488   1.359       .  S
C482        C483   1.403       .  A
C483        C484   1.395       .  A
C483        F490   1.358       .  S
C484        C485   1.407       .  A
C484        F489   1.358       .  S
C485        C486   1.411       .  A
C486        F487   1.358       .  S
C491        C492   1.415       .  A
C491        C496   1.407       .  A
C491        F498   1.357       .  S
C492        C493   1.415       .  A
C493        C494   1.408       .  A
C493        F500   1.354       .  S
C494        C495   1.406       .  A
C494        F499   1.358       .  S
C495        C496   1.405       .  A
C496        F497   1.357       .  S
C501        C502   1.425       .  A
C501        C506   1.420       .  A
C501        F508   1.356       .  S
C502        C503   1.419       .  A
C503        C504   1.405       .  A
C503        F510   1.352       .  S
C504        C505   1.407       .  A
C504        F509   1.359       .  S
C505        C506   1.409       .  A
C506        F507   1.357       .  S
C511        C512   1.408       .  A
C511        C516   1.406       .  A
C511        F518   1.357       .  S
C512        C513   1.415       .  A
C513        C514   1.411       .  A
C513        F520   1.357       .  S
C514        C515   1.407       .  A
C514        F519   1.357       .  S
C515        C516   1.410       .  A
C516        F517   1.358       .  S
C521        C522   1.414       .  A
C521        C526   1.416       .  A
C521        F528   1.354       .  S
C522        C523   1.398       .  A
C523        C524   1.399       .  A
C523        F530   1.358       .  S
C524        C525   1.429       .  A
C524        F529   1.357       .  S
C525        C526   1.414       .  A
C526        F527   1.355       .  S
C531        C532   1.408       .  A
C531        C536   1.413       .  A
C531        F538   1.357       .  S
C532        C533   1.411       .  A
C533        C534   1.401       .  A
C533        F540   1.359       .  S
C534        C535   1.410       .  A
C534        F539   1.358       .  S
C535        C536   1.414       .  A
C536        F537   1.357       .  S
C541        C542   1.405       .  A
C541        C546   1.381       .  A
C541        F548   1.358       .  S
C542        C543   1.404       .  A
C543        C544   1.396       .  A
C543        F550   1.358       .  S
C544        C545   1.406       .  A
C544        F549   1.358       .  S
C545        C546   1.400       .  A
C546        F547   1.359       .  S
C551        C552   1.410       .  A
C551        C556   1.405       .  A
C551        F558   1.358       .  S
C552        C553   1.414       .  A
C553        C554   1.409       .  A
C553        F560   1.357       .  S
C554        C555   1.405       .  A
C554        F559   1.357       .  S
C555        C556   1.410       .  A
C556        F557   1.358       .  S
C561        C562   1.409       .  A
C561        C566   1.400       .  A
C561        F568   1.357       .  S
C562        C563   1.415       .  A
C563        C564   1.414       .  A
C563        F570   1.357       .  S
C564        C565   1.408       .  A
C564        F569   1.357       .  S
C565        C566   1.408       .  A
C566        F567   1.359       .  S
C571        C572   1.405       .  A
C571        C576   1.394       .  A
C571        F578   1.358       .  S
C572        C573   1.410       .  A
C573        C574   1.386       .  A
C573        F580   1.359       .  S
C574        C575   1.403       .  A
C574        F579   1.359       .  S
C575        C576   1.405       .  A
C576        F577   1.358       .  S
C581        C582   1.413       .  A
C581        C586   1.402       .  A
C581        F588   1.355       .  S
C582        C583   1.423       .  A
C583        C584   1.418       .  A
C583        F590   1.356       .  S
C584        C585   1.408       .  A
C584        F589   1.357       .  S
C585        C586   1.410       .  A
C586        F587   1.359       .  S
C591        C592   1.406       .  A
C591        C596   1.411       .  A
C591        F598   1.357       .  S
C592        C593   1.426       .  A
C593        C594   1.410       .  A
C593        F600   1.358       .  S
C594        C595   1.406       .  A
C594        F599   1.357       .  S
C595        C596   1.416       .  A
C596        F597   1.351       .  S
C601        C602   1.408       .  A
C601        C606   1.418       .  A
C601        F608   1.357       .  S
C602        C603   1.414       .  A
C603        C604   1.403       .  A
C603        F610   1.359       .  S
C604        C605   1.410       .  A
C604        F609   1.357       .  S
C605        C606   1.420       .  A
C606        F607   1.357       .  S
C611        C612   1.422       .  A
C611        C616   1.405       .  A
C611        F618   1.359       .  S
C612        C613   1.407       .  A
C613        C614   1.415       .  A
C613        F620   1.357       .  S
C614        C615   1.420       .  A
C614        F619   1.356       .  S
C615        C616   1.405       .  A
C616        F617   1.357       .  S
C621        C622   1.422       .  A
C621        C626   1.419       .  A
C621        F628   1.356       .  S
C622        C623   1.418       .  A
C623        C624   1.404       .  A
C623        F630   1.354       .  S
C624        C625   1.408       .  A
C624        F629   1.359       .  S
C625        C626   1.409       .  A
C626        F627   1.357       .  S
C631        C632   1.407       .  A
C631        C636   1.414       .  A
C631        F638   1.357       .  S
C632        C633   1.424       .  A
C633        C634   1.410       .  A
C633        F640   1.358       .  S
C634        C635   1.406       .  A
C634        F639   1.357       .  S
C635        C636   1.420       .  A
C636        F637   1.354       .  S
C641        C642   1.410       .  A
C641        C646   1.388       .  A
C641        F648   1.358       .  S
C642        C643   1.407       .  A
C643        C644   1.393       .  A
C643        F650   1.358       .  S
C644        C645   1.403       .  A
C644        F649   1.358       .  S
C645        C646   1.400       .  A
C646        F647   1.358       .  S
C651        C652   1.404       .  A
C651        C656   1.389       .  A
C651        F658   1.358       .  S
C652        C653   1.403   1_455  A
C653        C654   1.388       .  A
C653        F660   1.358       .  S
C654        C655   1.404   1_655  A
C654        F659   1.358       .  S
C655        C656   1.405       .  A
C656        F657   1.358       .  S
C661        C662   1.400   1_655  A
C661        C666   1.386       .  A
C661        F668   1.359       .  S
C662        C663   1.404       .  A
C663        C664   1.395       .  A
C663        F670   1.358       .  S
C664        C665   1.403       .  A
C664        F669   1.358       .  S
C665        C666   1.407   1_455  A
C666        F667   1.359       .  S
C671        C672   1.401   1_655  A
C671        C676   1.392       .  A
C671        F678   1.358       .  S
C672        C673   1.403       .  A
C673        C674   1.392       .  A
C673        F680   1.359       .  S
C674        C675   1.406       .  A
C674        F679   1.359       .  S
C675        C676   1.406   1_455  A
C676        F677   1.358       .  S
C681        C682   1.422       .  A
C681        C686   1.404       .  A
C681        F688   1.358       .  S
C682        C683   1.409       .  A
C683        C684   1.417       .  A
C683        F690   1.357       .  S
C684        C685   1.418       .  A
C684        F689   1.357       .  S
C685        C686   1.403       .  A
C686        F687   1.357       .  S
C691        C692   1.409       .  A
C691        C696   1.416       .  A
C691        F698   1.357       .  S
C692        C693   1.415       .  A
C693        C694   1.401       .  A
C693        F700   1.359       .  S
C694        C695   1.407       .  A
C694        F699   1.358       .  S
C695        C696   1.417       .  A
C696        F697   1.357       .  S
C701        C702   1.407   1_455  A
C701        C706   1.393       .  A
C701        F708   1.358       .  S
C702        C703   1.412       .  A
C703        C704   1.388       .  A
C703        F710   1.358       .  S
C704        C705   1.399       .  A
C704        F709   1.359       .  S
C705        C706   1.402   1_655  A
C706        F707   1.358       .  S
C711        C712   1.411       .  A
C711        C716   1.409       .  A
C711        F718   1.358       .  S
C712        C713   1.408       .  A
C713        C714   1.413       .  A
C713        F720   1.357       .  S
C714        C715   1.413       .  A
C714        F719   1.357       .  S
C715        C716   1.410       .  A
C716        F717   1.358       .  S
C721        C722   1.411       .  A
C721        C726   1.389       .  A
C721        F728   1.358       .  S
C722        C723   1.406       .  A
C723        C724   1.395       .  A
C723        F730   1.358       .  S
C724        C725   1.404       .  A
C724        F729   1.358       .  S
C725        C726   1.398       .  A
C726        F727   1.359       .  S
C731        C732   1.416       .  A
C731        C736   1.410       .  A
C731        F738   1.357       .  S
C732        C733   1.410       .  A
C733        C734   1.408       .  A
C733        F740   1.357       .  S
C734        C735   1.410       .  A
C734        F739   1.358       .  S
C735        C736   1.406       .  A
C736        F737   1.357       .  S
C741        C742   1.414       .  A
C741        C746   1.412       .  A
C741        F748   1.357       .  S
C742        C743   1.410       .  A
C743        C744   1.409       .  A
C743        F750   1.357       .  S
C744        C745   1.411       .  A
C744        F749   1.358       .  S
C745        C746   1.408       .  A
C746        F747   1.357       .  S
C751        C752   1.409       .  A
C751        C756   1.396       .  A
C751        F758   1.358       .  S
C752        C753   1.414       .  A
C753        C754   1.390       .  A
C753        F760   1.358       .  S
C754        C755   1.401       .  A
C754        F759   1.359       .  S
C755        C756   1.404       .  A
C756        F757   1.357       .  S
C761        C762   1.415       .  A
C761        C766   1.405       .  A
C761        F768   1.358       .  S
C762        C763   1.410       .  A
C763        C764   1.412       .  A
C763        F770   1.357       .  S
C764        C765   1.410       .  A
C764        F769   1.357       .  S
C765        C766   1.406       .  A
C766        F767   1.358       .  S
C771        C772   1.408       .  A
C771        C776   1.418       .  A
C771        F778   1.357       .  S
C772        C773   1.422       .  A
C773        C774   1.407       .  A
C773        F780   1.359       .  S
C774        C775   1.407       .  A
C774        F779   1.354       .  S
C775        C776   1.421       .  A
C776        F777   1.355       .  S
C781        C782   1.423       .  A
C781        C786   1.406       .  A
C781        F788   1.358       .  S
C782        C783   1.410       .  A
C783        C784   1.412       .  A
C783        F790   1.357       .  S
C784        C785   1.413       .  A
C784        F789   1.356       .  S
C785        C786   1.400       .  A
C786        F787   1.357       .  S
C791        C792   1.416       .  A
C791        C796   1.407       .  A
C791        F798   1.353       .  S
C792        C793   1.421       .  A
C793        C794   1.415       .  A
C793        F800   1.355       .  S
C794        C795   1.405       .  A
C794        F799   1.357       .  S
C795        C796   1.408       .  A
C796        F797   1.358       .  S
C801        C802   1.409       .  A
C801        C806   1.412       .  A
C801        F808   1.357       .  S
C802        C803   1.412       .  A
C803        C804   1.410       .  A
C803        F810   1.358       .  S
C804        C805   1.408       .  A
C804        F809   1.358       .  S
C805        C806   1.411       .  A
C806        F807   1.357       .  S
C811        C812   1.412       .  A
C811        C816   1.411       .  A
C811        F818   1.358       .  S
C812        C813   1.407       .  A
C813        C814   1.410       .  A
C813        F820   1.358       .  S
C814        C815   1.416       .  A
C814        F819   1.358       .  S
C815        C816   1.409       .  A
C816        F817   1.357       .  S
C821        C822   1.400       .  A
C821        C826   1.390       .  A
C821        F828   1.359       .  S
C822        C823   1.402       .  A
C823        C824   1.394       .  A
C823        F830   1.358   1_545  S
C824        C825   1.406       .  A
C824        F829   1.358   1_545  S
C825        C826   1.408       .  A
C826        F827   1.358       .  S
C831        C832   1.405       .  A
C831        C836   1.394       .  A
C831        F838   1.358       .  S
C832        C833   1.404   1_545  A
C833        C834   1.384       .  A
C833        F840   1.359       .  S
C834        C835   1.403   1_565  A
C834        F839   1.359       .  S
C835        C836   1.402       .  A
C836        F837   1.358       .  S
C841        C842   1.410       .  A
C841        C846   1.402       .  A
C841        F848   1.359       .  S
C842        C843   1.405       .  A
C843        C844   1.413       .  A
C843        F850   1.357       .  S
C844        C845   1.421       .  A
C844        F849   1.356       .  S
C845        C846   1.412       .  A
C846        F847   1.356       .  S
C851        C852   1.411       .  A
C851        C856   1.410       .  A
C851        F858   1.356       .  S
C852        C853   1.426       .  A
C853        C854   1.405       .  A
C853        F860   1.358       .  S
C854        C855   1.401       .  A
C854        F859   1.358       .  S
C855        C856   1.411       .  A
C856        F857   1.355       .  S
C861        C862   1.405   1_565  A
C861        C866   1.393       .  A
C861        F868   1.358       .  S
C862        C863   1.401       .  A
C863        C864   1.386       .  A
C863        F870   1.359       .  S
C864        C865   1.408       .  A
C864        F869   1.359       .  S
C865        C866   1.403   1_545  A
C866        F867   1.358       .  S
C871        C872   1.404   1_554  A
C871        C876   1.393       .  A
C871        F878   1.358       .  S
C872        C873   1.403       .  A
C873        C874   1.388       .  A
C873        F880   1.359       .  S
C874        C875   1.407       .  A
C874        F879   1.359       .  S
C875        C876   1.406   1_556  A
C876        F877   1.358       .  S
C881        C882   1.399       .  A
C881        C886   1.389       .  A
C881        F888   1.359       .  S
C882        C883   1.403   1_554  A
C883        C884   1.393       .  A
C883        F890   1.358       .  S
C884        C885   1.408   1_556  A
C884        F889   1.358       .  S
C885        C886   1.413       .  A
C886        F887   1.358       .  S
C891        C892   1.413       .  A
C891        C896   1.417       .  A
C891        F898   1.355       .  S
C892        C893   1.428       .  A
C893        C894   1.402       .  A
C893        F900   1.358       .  S
C894        C895   1.400       .  A
C894        F899   1.357       .  S
C895        C896   1.415       .  A
C896        F897   1.354       .  S
C901        C902   1.406       .  A
C901        C906   1.413       .  A
C901        F908   1.357       .  S
C902        C903   1.413       .  A
C903        C904   1.405       .  A
C903        F910   1.358       .  S
C904        C905   1.407       .  A
C904        F909   1.357       .  S
C905        C906   1.418       .  A
C906        F907   1.357       .  S
C911        C912   1.406       .  A
C911        C916   1.393       .  A
C911        F918   1.358       .  S
C912        C913   1.404       .  A
C913        C914   1.389       .  A
C913        F920   1.358   1_556  S
C914        C915   1.401       .  A
C914        F919   1.358   1_556  S
C915        C916   1.402       .  A
C916        F917   1.358       .  S
C921        C922   1.414       .  A
C921        C926   1.413       .  A
C921        F928   1.354       .  S
C922        C923   1.400       .  A
C923        C924   1.401       .  A
C923        F930   1.358       .  S
C924        C925   1.423       .  A
C924        F929   1.356       .  S
C925        C926   1.408       .  A
C926        F927   1.356       .  S
C931        C932   1.411       .  A
C931        C936   1.400       .  A
C931        F938   1.359       .  S
C932        C933   1.408       .  A
C933        C934   1.419       .  A
C933        F940   1.357       .  S
C934        C935   1.420       .  A
C934        F939   1.357       .  S
C935        C936   1.409       .  A
C936        F937   1.357       .  S
C941        C942   1.409       .  A
C941        C946   1.388       .  A
C941        F948   1.355       .  S
C942        C943   1.410       .  A
C943        C944   1.396       .  A
C943        F950   1.358       .  S
C944        C945   1.404       .  A
C944        F949   1.358       .  S
C945        C946   1.403       .  A
C946        F947   1.359       .  S
C951        C952   1.422       .  A
C951        C956   1.413       .  A
C951        F958   1.356       .  S
C952        C953   1.421       .  A
C953        C954   1.407       .  A
C953        F960   1.352       .  S
C954        C955   1.403       .  A
C954        F959   1.358       .  S
C955        C956   1.407       .  A
C956        F957   1.358       .  S
C961        C962   1.407       .  A
C961        C966   1.390       .  A
C961        F968   1.359       .  S
C962        C963   1.405   1_565  A
C963        C964   1.395       .  A
C963        F970   1.358       .  S
C964        C965   1.404   1_545  A
C964        F969   1.358       .  S
C965        C966   1.400       .  A
C966        F967   1.358       .  S
C971        C972   1.408       .  A
C971        C976   1.412       .  A
C971        F978   1.358       .  S
C972        C973   1.404       .  A
C973        C974   1.409       .  A
C973        F980   1.358       .  S
C974        C975   1.420       .  A
C974        F979   1.356       .  S
C975        C976   1.416       .  A
C976        F977   1.354       .  S
C981        C982   1.420       .  A
C981        C986   1.407       .  A
C981        F988   1.359       .  S
C982        C983   1.409       .  A
C983        C984   1.418       .  A
C983        F990   1.357       .  S
C984        C985   1.418       .  A
C984        F989   1.357       .  S
C985        C986   1.408       .  A
C986        F987   1.354       .  S
C991        C992   1.410   1_556  A
C991        C996   1.399       .  A
C991        F998   1.358       .  S
C992        C993   1.410       .  A
C993        C994   1.390       .  A
C993       F1000   1.356       .  S
C994        C995   1.404       .  A
C994        F999   1.359       .  S
C995        C996   1.406   1_554  A
C996        F997   1.358       .  S
C1001      C1002   1.418       .  A
C1001      C1006   1.407       .  A
C1001      F1008   1.357       .  S
C1002      C1003   1.407       .  A
C1003      C1004   1.418       .  A
C1003      F1010   1.357       .  S
C1004      C1005   1.417       .  A
C1004      F1009   1.354       .  S
C1005      C1006   1.408       .  A
C1006      F1007   1.356       .  S
C1011      C1012   1.415       .  A
C1011      C1016   1.414       .  A
C1011      F1018   1.356       .  S
C1012      C1013   1.425       .  A
C1013      C1014   1.405       .  A
C1013      F1020   1.357       .  S
C1014      C1015   1.400       .  A
C1014      F1019   1.357       .  S
C1015      C1016   1.411       .  A
C1016      F1017   1.358       .  S
C1021      C1022   1.408       .  A
C1021      C1026   1.409       .  A
C1021      F1028   1.358       .  S
C1022      C1023   1.412       .  A
C1023      C1024   1.407       .  A
C1023      F1030   1.358       .  S
C1024      C1025   1.406       .  A
C1024      F1029   1.357       .  S
C1025      C1026   1.411       .  A
C1026      F1027   1.358       .  S
C1031      C1032   1.409       .  A
C1031      C1036   1.400       .  A
C1031      F1038   1.358       .  S
C1032      C1033   1.411       .  A
C1033      C1034   1.393       .  A
C1033      F1040   1.358       .  S
C1034      C1035   1.402       .  A
C1034      F1039   1.359       .  S
C1035      C1036   1.404       .  A
C1036      F1037   1.357       .  S
C1041      C1042   1.410       .  A
C1041      C1046   1.401       .  A
C1041      F1048   1.359       .  S
C1042      C1043   1.408       .  A
C1043      C1044   1.415       .  A
C1043      F1050   1.357       .  S
C1044      C1045   1.416       .  A
C1044      F1049   1.357       .  S
C1045      C1046   1.412       .  A
C1046      F1047   1.357       .  S
C1051      C1052   1.419       .  A
C1051      C1056   1.405       .  A
C1051      F1058   1.358       .  S
C1052      C1053   1.405       .  A
C1053      C1054   1.411       .  A
C1053      F1060   1.358       .  S
C1054      C1055   1.420       .  A
C1054      F1059   1.353       .  S
C1055      C1056   1.407       .  A
C1056      F1057   1.356       .  S
C1061      C1062   1.408       .  A
C1061      C1066   1.388       .  A
C1061      F1068   1.359       .  S
C1062      C1063   1.406       .  A
C1063      C1064   1.395       .  A
C1063      F1070   1.358       .  S
C1064      C1065   1.405       .  A
C1064      F1069   1.358       .  S
C1065      C1066   1.403       .  A
C1066      F1067   1.359       .  S
C1071      C1072   1.408       .  A
C1071      C1076   1.413       .  A
C1071      F1078   1.357       .  S
C1072      C1073   1.413       .  A
C1073      C1074   1.411       .  A
C1073      F1080   1.358       .  S
C1074      C1075   1.409       .  A
C1074      F1079   1.357       .  S
C1075      C1076   1.415       .  A
C1076      F1077   1.357       .  S
C1081      C1082   1.410       .  A
C1081      C1086   1.413       .  A
C1081      F1088   1.357       .  S
C1082      C1083   1.409       .  A
C1083      C1084   1.409       .  A
C1083      F1090   1.358       .  S
C1084      C1085   1.415       .  A
C1084      F1089   1.357       .  S
C1085      C1086   1.413       .  A
C1086      F1087   1.357       .  S
C1091      C1092   1.405       .  A
C1091      C1096   1.396       .  A
C1091      F1098   1.358       .  S
C1092      C1093   1.410       .  A
C1093      C1094   1.386       .  A
C1093      F1100   1.359       .  S
C1094      C1095   1.403       .  A
C1094      F1099   1.359       .  S
C1095      C1096   1.407       .  A
C1096      F1097   1.358       .  S
