geometry optimzed in LAMMPS
_audit_creation_date              2020-12-01 
_audit_creation_method            'lammps2cif' 
_symmetry_space_group_name_H-M    'P1' 
_symmetry_Int_Tables_number       1 
_symmetry_cell_setting            triclinic 
loop_ 
_symmetry_equiv_pos_as_xyz 
  x,y,z 
_cell_length_a                    35.68165356 
_cell_length_b                    37.22053921148604 
_cell_length_c                    37.99727690801514 
_cell_angle_alpha                 87.33522314365615 
_cell_angle_beta                  82.36520934482519 
_cell_angle_gamma                 88.39150731913949 
loop_ 
_atom_site_label 
_atom_site_type_symbol 
_atom_site_fract_x 
_atom_site_fract_y 
_atom_site_fract_z 
_atom_site_charge 
C1          C  0.04472873  0.05439941  0.03923834     0.87400
C2          C  0.05888823  0.08898353  0.02148622    -0.52800
C3          C  0.07158156  0.11321178  0.04383250     0.10400
C4          C  0.07349727  0.09619557  0.08247006     0.21300
C5          C  0.07984113  0.03862597  0.05358841    -0.53500
C6          C  0.09415914  0.05777734  0.07851421     0.10500
C7          C  0.01689548  0.06810046  0.07142936    -0.53000
C8          C  0.03161655  0.08833543  0.09497254     0.11000
H9          H  0.05686176  0.09438750  0.49361413     0.15600
H10         H  0.08599817  0.11412762  0.10013042     0.01300
H11         H  0.08765338  0.51056819  0.04987615     0.15900
H12         H  0.48755329  0.06183235  0.07670256     0.15700
C13         C  0.44894086  0.03041988  0.45493325     0.87400
C14         C  0.43131511  0.00287805  0.43428957    -0.52800
C15         C  0.39896722  0.01520033  0.42139179     0.10400
C16         C  0.38726212  0.05404759  0.43219586     0.21300
C17         C  0.45551758  0.06142446  0.42820113    -0.53500
C18         C  0.42320653  0.07693556  0.41851793     0.10500
C19         C  0.41770212  0.04016343  0.48412702    -0.53000
C20         C  0.38446582  0.05058586  0.47309152     0.11000
H21         H  0.44568524  0.47799945  0.42648474     0.15600
H22         H  0.36104811  0.06460956  0.42222292     0.01300
H23         H  0.48269707  0.07465943  0.42341824     0.15900
H24         H  0.42275460  0.03871474  0.01169831     0.15700
C25         C  0.44955202  0.45621486  0.04773050     0.87400
C26         C  0.47112782  0.43760501  0.07581256    -0.52800
C27         C  0.45464166  0.40888413  0.09402099     0.10400
C28         C  0.41435765  0.40299502  0.08286770     0.21300
C29         C  0.43731715  0.42692882  0.02494887    -0.53500
C30         C  0.41932513  0.39932199  0.04266158     0.10500
C31         C  0.41262222  0.46848737  0.06896269    -0.53000
C32         C  0.39269658  0.44045880  0.08662932     0.11000
H33         H  0.50078395  0.44303836  0.07695591     0.15600
H34         H  0.40043666  0.37915695  0.09666803     0.01300
H35         H  0.44195436  0.42571869  0.99655973     0.15900
H36         H  0.40439257  0.99643370  0.07150220     0.15700
C37         C  0.04214540  0.44015623  0.45897460     0.87400
C38         C  0.06617934  0.41561417  0.47980381    -0.52800
C39         C  0.08542723  0.38972687  0.46048581     0.10400
C40         C  0.07151501  0.38632373  0.42323736     0.21300
C41         C  0.06625582  0.45102277  0.42273123    -0.53500
C42         C  0.08157360  0.42238408  0.40357787     0.10500
C43         C  0.01317097  0.41312036  0.44906508    -0.53000
C44         C  0.02800676  0.38756703  0.42597411     0.11000
H45         H  0.07362238  0.42332973  0.00474088     0.15600
H46         H  0.08298899  0.36164976  0.41038909     0.01300
H47         H  0.07132247  0.47878052  0.41371706     0.15900
H48         H  0.48270312  0.41810194  0.45044582     0.15700
C49         C  0.02525962  0.02683865  0.01674935     0.87400
C50         C  0.50264779  0.04480541  0.98886841    -0.52800
C51         C  0.48263582  0.02033128  0.47242403     0.10400
C52         C  0.48595865  0.48244171  0.48616436     0.21300
C53         C  0.49636037  0.50536795  0.04206789    -0.53500
C54         C  0.47488570  0.48334287  0.02637702     0.10500
C55         C  0.04903437  0.49665745  0.99553088    -0.53000
C56         C  0.02799523  0.47313822  0.48023094     0.11000
H57         H  0.49759906  0.07331605  0.48573339     0.15600
H58         H  0.46917272  0.46594783  0.47278720     0.01300
H59         H  0.49458119  0.50483300  0.07078954     0.15900
H60         H  0.07961848  0.49415180  0.99319541     0.15700
N61         N  0.38500935  0.38317811  0.26501245    -0.02500
C62         C  0.35887731  0.35827690  0.28019136     0.00100
C63         C  0.32348719  0.37474063  0.28718313    -0.22800
C64         C  0.32661522  0.40934283  0.27735302    -0.23000
C65         C  0.36404383  0.41553970  0.26501020     0.00000
H66         H  0.29681318  0.36277659  0.29730389     0.13800
H67         H  0.30292329  0.42828800  0.27914439     0.13800
N68         N  0.30793794  0.36520477  0.39612057    -0.02500
C69         C  0.33637544  0.34369112  0.37953499     0.00100
C70         C  0.36755542  0.36547335  0.36919906    -0.22800
C71         C  0.35329129  0.39924136  0.36476820    -0.23000
C72         C  0.31609972  0.39769174  0.37882088     0.00000
H73         H  0.39566772  0.35817018  0.35726064     0.13800
H74         H  0.36771737  0.42175237  0.35057975     0.13800
N75         N  0.24426873  0.38006094  0.10859129    -0.02500
C76         C  0.25624387  0.35353788  0.13077562     0.00100
C77         C  0.28378987  0.36745935  0.14863158    -0.22800
C78         C  0.27535319  0.40294229  0.14996787    -0.23000
C79         C  0.25074940  0.41036626  0.12584247     0.00000
H80         H  0.30115965  0.35382962  0.16650964     0.13800
H81         H  0.28456304  0.42124144  0.16820539     0.13800
N82         N  0.36571823  0.21604015  0.11773030    -0.02500
C83         C  0.33288750  0.23108394  0.13312128     0.00100
C84         C  0.34026516  0.26584094  0.14281224    -0.22800
C85         C  0.37850430  0.26774184  0.14192218    -0.23000
C86         C  0.39300848  0.23585143  0.12860765     0.00000
H87         H  0.32072617  0.28571814  0.15495929     0.13800
H88         H  0.39363299  0.28849417  0.15280025     0.13800
O89         O  0.29274833  0.33737831  0.45528840    -0.70800
O90         O  0.25932589  0.34623074  0.05640862    -0.71000
O91         O  0.22785114  0.35117766  0.49725660    -0.70900
O92         O  0.32700580  0.33069281  0.01658668    -0.70900
O93         O  0.34103193  0.38699142  0.01153806    -0.70900
O94         O  0.24066389  0.40790157  0.49379957    -0.70900
O95         O  0.27330276  0.40272828  0.05197868    -0.70800
O96         O  0.30498501  0.39417081  0.45170403    -0.71000
V97         V  0.27725419  0.34248128  0.00635024     1.35200
V98         V  0.28975058  0.39690258  0.00228850     1.35200
C99         C  0.30157539  0.36538813  0.43557153     0.78400
C100        C  0.25860524  0.37652628  0.07092555     0.78500
C101        C  0.21723130  0.38321949  0.49255055     0.74300
C102        C  0.35141696  0.35457104  0.01717194     0.78300
O103        O  0.35145515  0.22322434  0.46244018    -0.70800
O104        O  0.34108166  0.22123432  0.06352141    -0.71000
O105        O  0.36023773  0.27101101  0.01091806    -0.70900
O106        O  0.33225608  0.17371574  0.01672288    -0.70900
O107        O  0.39124289  0.15772236  0.01624174    -0.70900
O108        O  0.41887575  0.25351034  0.00930649    -0.70900
O109        O  0.40017600  0.20495178  0.06216119    -0.70800
O110        O  0.41045328  0.20770783  0.46107495    -0.71000
V111        V  0.34716716  0.22208649  0.01337556     1.35200
V112        V  0.40386153  0.20622685  0.01201495     1.35200
C113        C  0.38325048  0.21724064  0.44446275     0.78400
C114        C  0.36879202  0.21254504  0.08002851     0.78500
C115        C  0.39468451  0.27856677  0.00844214     0.78300
C116        C  0.35711339  0.14939128  0.01957605     0.78300
N117        N  0.39066387  0.34432708  0.02008519    -0.02500
C118        C  0.41989384  0.36586079  0.02391296     0.00100
C119        C  0.45397057  0.35205358  0.00803794    -0.22800
C120        C  0.44681011  0.31979319  0.99620084    -0.23000
C121        C  0.40849639  0.31494310  0.00511590     0.00000
H122        H  0.48144576  0.36387415  0.00573886     0.13800
H123        H  0.46786765  0.30057385  0.98489387     0.13800
N124        N  0.39695901  0.24618413  0.38188057    -0.02500
C125        C  0.38712355  0.21761247  0.40517771     0.00100
C126        C  0.37420021  0.18947597  0.38847056    -0.22800
C127        C  0.37416032  0.20067565  0.35389469    -0.23000
C128        C  0.38393193  0.23669572  0.35107144     0.00000
H129        H  0.36352695  0.16430142  0.40070157     0.13800
H130        H  0.36227717  0.18561860  0.33452343     0.13800
N131        N  0.11227176  0.38197044  0.21016063    -0.02500
C132        C  0.13339124  0.36817473  0.18071225     0.00100
C133        C  0.14796304  0.39593848  0.15777046    -0.22800
C134        C  0.14527628  0.42586998  0.17697785    -0.23000
C135        C  0.12592037  0.41636406  0.20956241     0.00000
H136        H  0.16666653  0.39373356  0.13312180     0.13800
H137        H  0.15794702  0.45147748  0.16882791     0.13800
O138        O  0.48848065  0.39508765  0.17633303    -0.70800
O139        O  0.00272872  0.40721166  0.27464627    -0.71000
O140        O  0.04963196  0.40438499  0.21399366    -0.70900
O141        O  0.44351791  0.40467802  0.23904295    -0.70900
O142        O  0.44289152  0.34719509  0.25068885    -0.70900
O143        O  0.05444760  0.34667007  0.22288216    -0.70900
O144        O  0.00625538  0.34947874  0.28451130    -0.70800
O145        O  0.49057785  0.33767047  0.18794109    -0.71000
V146        V  0.49619173  0.40120017  0.22586286     1.35200
V147        V  0.49812468  0.34586341  0.23578495     1.35200
C148        C  0.48650096  0.36318899  0.16552453     0.78400
C149        C  0.00610234  0.38026818  0.29642688     0.78500
C150        C  0.07092562  0.37709017  0.21611691     0.78300
C151        C  0.42496711  0.37773206  0.25111631     0.78300
O152        O  0.06322218  0.23796380  0.36463410    -0.70800
O153        O  0.45882863  0.26070987  0.35402909    -0.71000
O154        O  0.02247945  0.30309272  0.34723701    -0.70900
O155        O  0.49699152  0.20270295  0.37032446    -0.70900
O156        O  0.49202765  0.21396297  0.42609008    -0.70900
O157        O  0.00678277  0.31365877  0.40290574    -0.70900
O158        O  0.44695969  0.26743737  0.41076236    -0.70800
O159        O  0.05342957  0.25520245  0.41869106    -0.71000
V160        V  0.01084582  0.25242957  0.35962032     1.35200
V161        V  0.00056857  0.26314129  0.41318299     1.35200
C162        C  0.07526895  0.23920713  0.39475528     0.78400
C163        C  0.43462353  0.26109358  0.38179091     0.78500
C164        C  0.01544848  0.32616684  0.37129555     0.78300
C165        C  0.48729032  0.19254998  0.40236602     0.78300
N166        N  0.01475710  0.36553362  0.36432010    -0.02500
C167        C  0.01095257  0.38951118  0.39134345     0.00100
C168        C  0.00038025  0.42338473  0.37877062    -0.22800
C169        C  0.99905932  0.42186094  0.34390214    -0.23000
C170        C  0.00747716  0.38698982  0.33470075     0.00000
H171        H  0.99775496  0.44823045  0.39264320     0.13800
H172        H  0.99314139  0.44470546  0.32667968     0.13800
N173        N  0.11143070  0.22168266  0.40259796    -0.02500
C174        C  0.12768954  0.18840842  0.39220516     0.00100
C175        C  0.15461804  0.17753573  0.41346775    -0.22800
C176        C  0.16101041  0.20623403  0.43171072    -0.23000
C177        C  0.13305711  0.23150383  0.42748751     0.00000
H178        H  0.17384455  0.15442454  0.41053033     0.13800
H179        H  0.18385132  0.20842820  0.44734454     0.13800
N180        N  0.37091795  0.12958796  0.22133212    -0.02500
C181        C  0.35742282  0.15215667  0.19639182     0.00100
C182        C  0.37367547  0.18549903  0.19817849    -0.22800
C183        C  0.39258065  0.18467371  0.22673508    -0.23000
C184        C  0.38938563  0.15046632  0.24122527     0.00000
H185        H  0.36341213  0.21078168  0.18860356     0.13800
H186        H  0.40519198  0.20741427  0.23709089     0.13800
O187        O  0.34470938  0.47664167  0.26401431    -0.70800
O188        O  0.34053669  0.07426535  0.23218363    -0.71000
O189        O  0.33231573  0.50995178  0.20393156    -0.70900
O190        O  0.35354939  0.03873194  0.29279839    -0.70900
O191        O  0.41249723  0.02545680  0.27669459    -0.70900
O192        O  0.39229805  0.01471067  0.18346582    -0.70900
O193        O  0.40190539  0.07246149  0.22165810    -0.70800
O194        O  0.40189089  0.46857371  0.23835171    -0.71000
V195        V  0.34391900  0.02517071  0.24769217     1.35200
V196        V  0.40145473  0.02109258  0.23019576     1.35200
C197        C  0.37218676  0.45495460  0.25546605     0.78400
C198        C  0.37095417  0.09076383  0.22395750     0.78500
C199        C  0.35976624  0.00457167  0.17982981     0.78300
C200        C  0.38543551  0.02949163  0.30125445     0.78300
O201        O  0.20559818  0.97383236  0.39577139    -0.70800
O202        O  0.30567166  0.00748277  0.40008934    -0.71000
O203        O  0.23609962  0.03868292  0.39683421    -0.70900
O204        O  0.27350874  0.44318504  0.40257243    -0.70900
O205        O  0.29018743  0.44574291  0.34548182    -0.70900
O206        O  0.24214106  0.03886776  0.33925709    -0.70900
O207        O  0.31201180  0.01366057  0.34288263    -0.70800
O208        O  0.22013630  0.47019547  0.33856768    -0.71000
V209        V  0.25501844  0.99108993  0.39791073     1.35200
V210        V  0.26579369  0.99209216  0.34272210     1.35200
C211        C  0.19747555  0.46420821  0.36609991     0.78400
C212        C  0.32662908  0.01488879  0.37088301     0.78500
C213        C  0.23356620  0.05563829  0.36771387     0.78300
C214        C  0.29078861  0.42920886  0.37547303     0.78300
N215        N  0.36725564  0.01820441  0.36842432    -0.02500
C216        C  0.38518085  0.99776283  0.39168898     0.00100
C217        C  0.40985927  0.97352094  0.37341233    -0.22800
C218        C  0.41546543  0.98625782  0.33929333    -0.23000
C219        C  0.39037457  0.01473063  0.33690988     0.00000
H220        H  0.42621565  0.95184773  0.38411955     0.13800
H221        H  0.43446900  0.97478769  0.31794902     0.13800
N222        N  0.22794672  0.09429075  0.36755637    -0.02500
C223        C  0.23432892  0.11396507  0.33680340     0.00100
C224        C  0.27255244  0.12308264  0.33160547    -0.22800
C225        C  0.28192162  0.12509387  0.36513536    -0.23000
C226        C  0.25193528  0.10983644  0.38644486     0.00000
H227        H  0.28780227  0.13668431  0.30850453     0.13800
H228        H  0.30542805  0.13906083  0.37307638     0.13800
O229        O  0.10614559  0.32668406  0.00702088    -0.70800
O230        O  0.09022673  0.22693589  0.03541463    -0.71000
O231        O  0.09924181  0.28525023  0.07192071    -0.70900
O232        O  0.09662512  0.26439267  0.47391060    -0.70900
O233        O  0.15775337  0.26615954  0.46658829    -0.70900
O234        O  0.15928329  0.27194388  0.06430903    -0.70900
O235        O  0.15074879  0.21768178  0.02351499    -0.70800
O236        O  0.16623460  0.31794652  0.00763860    -0.71000
V237        V  0.09899584  0.27669339  0.02218991     1.35200
V238        V  0.15727327  0.26846148  0.01595418     1.35200
C239        C  0.13957963  0.33865776  0.00050274     0.78400
C240        C  0.11797412  0.20475895  0.03163378     0.78500
C241        C  0.12936392  0.27687223  0.08527313     0.78300
C242        C  0.12779082  0.25846235  0.45474833     0.78300
N243        N  0.14814997  0.37354534  0.48334605    -0.02500
C244        C  0.12632355  0.39331293  0.46254026     0.00100
C245        C  0.14406860  0.42526843  0.45062627    -0.22800
C246        C  0.17763852  0.42500935  0.46285910    -0.23000
C247        C  0.18050464  0.39299904  0.48157976     0.00000
H248        H  0.13327947  0.44832214  0.43677234     0.13800
H249        H  0.19829154  0.44602129  0.45821068     0.13800
O250        O  0.50228312  0.26572489  0.09824303    -0.70800
O251        O  0.01081577  0.16468799  0.11766141    -0.71000
O252        O  0.45372511  0.21226771  0.10679617    -0.70900
O253        O  0.05893747  0.22032147  0.10675966    -0.70900
O254        O  0.05033387  0.22717910  0.16378664    -0.70900
O255        O  0.44429114  0.22665354  0.16204785    -0.70900
O256        O  0.99834899  0.17414544  0.17387755    -0.70800
O257        O  0.49704923  0.27588587  0.15449115    -0.71000
V258        V  0.50616254  0.21572129  0.10868221     1.35200
V259        V  0.49735417  0.22501449  0.16286738     1.35200
C260        C  0.50008916  0.28800065  0.12276829     0.78400
C261        C  0.00613248  0.15189373  0.14951159     0.78500
C262        C  0.43149095  0.22294760  0.13290753     0.78300
C263        C  0.07196560  0.22768846  0.13456424     0.78300
N264        N  0.48352940  0.35512895  0.12837321    -0.02500
C265        C  0.48327223  0.37991050  0.10049999     0.00100
C266        C  0.50776185  0.36935530  0.07126540    -0.22800
C267        C  0.51965111  0.33560969  0.07854255    -0.23000
C268        C  0.50332775  0.32661427  0.11254219     0.00000
H269        H  0.51363108  0.38370364  0.04582786     0.13800
H270        H  0.53538465  0.31816775  0.05958249     0.13800
N271        N  0.12965789  0.26583665  0.12221806    -0.02500
C272        C  0.16481097  0.25899743  0.13154735     0.00100
C273        C  0.17090711  0.22241069  0.13634751    -0.22800
C274        C  0.13624639  0.20737132  0.14035100    -0.23000
C275        C  0.11185058  0.23449130  0.13314827     0.00000
H276        H  0.19663931  0.20980790  0.14324800     0.13800
H277        H  0.12847922  0.18020662  0.14880446     0.13800
O278        O  0.24420871  0.14546268  0.43633238    -0.70800
O279        O  0.24200855  0.15169130  0.03586295    -0.71000
O280        O  0.29270467  0.13433546  0.48032495    -0.70900
O281        O  0.19181754  0.16394065  0.99141548    -0.70900
O282        O  0.17421498  0.10869279  0.99033173    -0.70900
O283        O  0.27598326  0.07958649  0.49622731    -0.70900
O284        O  0.21630154  0.09911209  0.04337463    -0.70800
O285        O  0.23382117  0.08815152  0.44448111    -0.71000
V286        V  0.24198890  0.14789242  0.48587895     1.35200
V287        V  0.22526984  0.09458631  0.49332745     1.35200
C288        C  0.24297058  0.11474805  0.42391103     0.78400
C289        C  0.22737865  0.12682870  0.05650009     0.78500
C290        C  0.30168370  0.10251357  0.48822385     0.78300
C291        C  0.16590299  0.14184731  0.99154277     0.78300
N292        N  0.33922412  0.09511904  0.49478877    -0.02500
C293        C  0.35172548  0.06127677  0.49906760     0.00100
C294        C  0.35460547  0.05478440  0.53504977    -0.22800
C295        C  0.35590359  0.08784188  0.54942804    -0.23000
C296        C  0.34749868  0.11181369  0.02307134     0.00000
H297        H  0.36401140  0.02999119  0.54692000     0.13800
H298        H  0.36603125  0.09356349  0.07424472     0.13800
O299        O  0.23130905  0.46462822  0.15253343    -0.70800
O300        O  0.24639307  0.06493534  0.14887422    -0.71000
O301        O  0.18541057  0.02398375  0.15540354    -0.70900
O302        O  0.29059732  0.00589862  0.14820087    -0.70900
O303        O  0.29537419  0.99980025  0.09140219    -0.70900
O304        O  0.18788879  0.02852928  0.09825983    -0.70900
O305        O  0.25530500  0.06379588  0.09138820    -0.70800
O306        O  0.23113786  0.46454466  0.09548392    -0.71000
V307        V  0.23842498  0.01474487  0.15002993     1.35200
V308        V  0.24207574  0.01456339  0.09501200     1.35200
C309        C  0.23400944  0.44719798  0.12432024     0.78400
C310        C  0.25281438  0.08183339  0.11907438     0.78500
C311        C  0.16811226  0.03088242  0.12894972     0.78300
C312        C  0.31054044  0.99660246  0.11998414     0.78300
N313        N  0.34731936  0.47989868  0.12237014    -0.02500
C314        C  0.35669968  0.44612977  0.11056422     0.00100
C315        C  0.35534506  0.42166319  0.13924086    -0.22800
C316        C  0.35838620  0.44103820  0.16768555    -0.23000
C317        C  0.35689029  0.97622204  0.15594726     0.00000
H318        H  0.35960593  0.39284749  0.13934715     0.13800
H319        H  0.36289341  0.43035622  0.19362044     0.13800
N320        N  0.24830057  0.12060270  0.11663571    -0.02500
C321        C  0.23415745  0.13620606  0.14735747     0.00100
C322        C  0.19552970  0.14154463  0.14836282    -0.22800
C323        C  0.18815214  0.13934621  0.11403325    -0.23000
C324        C  0.22226837  0.13068722  0.09493044     0.00000
H325        H  0.17607598  0.15112445  0.17028720     0.13800
H326        H  0.16167566  0.14503234  0.10369372     0.13800
O327        O  0.15134833  0.46093333  0.24254415    -0.70800
O328        O  0.14055323  0.05652844  0.28009357    -0.71000
O329        O  0.15168942  0.48837758  0.30840197    -0.70900
O330        O  0.14226580  0.02656101  0.21483033    -0.70900
O331        O  0.08175298  0.02006830  0.22673167    -0.70900
O332        O  0.09149914  0.47861391  0.31868332    -0.70900
O333        O  0.08075026  0.04587181  0.29190976    -0.70800
O334        O  0.09064876  0.45383383  0.25255170    -0.71000
V335        V  0.14545707  0.50783495  0.26201241     1.35200
V336        V  0.08741514  0.50012547  0.27249900     1.35200
C337        C  0.12245718  0.44311457  0.23793183     0.78400
C338        C  0.10756929  0.06733173  0.29252932     0.78500
C339        C  0.12379174  0.47563129  0.32905857     0.78300
C340        C  0.11048696  0.02599271  0.20383277     0.78300
N341        N  0.12959338  0.45462721  0.36128114    -0.02500
C342        C  0.10893042  0.42458560  0.37005484     0.00100
C343        C  0.13231874  0.39432267  0.36352197    -0.22800
C344        C  0.16840764  0.40564155  0.36203693    -0.23000
C345        C  0.16521062  0.44226964  0.36370948     0.00000
H346        H  0.12494395  0.36632926  0.36616823     0.13800
H347        H  0.19379835  0.38900172  0.36197006     0.13800
O348        O  0.42974333  0.16193279  0.28165288    -0.70800
O349        O  0.02756185  0.12985567  0.28903323    -0.71000
O350        O  0.48700613  0.13788825  0.23589823    -0.70900
O351        O  0.47074920  0.15458664  0.33569233    -0.70900
O352        O  0.43877678  0.10562560  0.34445325    -0.70900
O353        O  0.48113535  0.08126627  0.25117398    -0.70900
O354        O  0.00553725  0.08105559  0.31699165    -0.70800
O355        O  0.41472417  0.10622251  0.27883227    -0.71000
V356        V  0.47835526  0.14562600  0.28604032     1.35200
V357        V  0.46001086  0.09385632  0.29759937     1.35200
C358        C  0.40959080  0.13901048  0.27049488     0.78400
C359        C  0.03182118  0.10323822  0.30987381     0.78500
C360        C  0.48806643  0.10563979  0.22667612     0.78300
C361        C  0.45180573  0.13279418  0.35724949     0.78300
N362        N  0.44691084  0.13745601  0.39527103    -0.02500
C363        C  0.42514903  0.11643471  0.42017186     0.00100
C364        C  0.42947954  0.12737346  0.45366231    -0.22800
C365        C  0.45766860  0.15151131  0.44982428    -0.23000
C366        C  0.46676674  0.15910870  0.41400424     0.00000
H367        H  0.42067183  0.11276219  0.47836653     0.13800
H368        H  0.46907514  0.16359887  0.47139438     0.13800
N369        N  0.09862606  0.10123442  0.30994132    -0.02500
C370        C  0.11168742  0.13575567  0.30390812     0.00100
C371        C  0.08635359  0.15847098  0.32347185    -0.22800
C372        C  0.06161173  0.13742247  0.34506793    -0.23000
C373        C  0.06412319  0.10483457  0.32930245     0.00000
H374        H  0.08840207  0.18722506  0.32514951     0.13800
H375        H  0.03735006  0.14776748  0.36181420     0.13800
N376        N  0.00765491  0.11307754  0.15742677    -0.02500
C377        C  0.01272451  0.08690447  0.13271626     0.00100
C378        C  0.99988573  0.05431824  0.14778727    -0.22800
C379        C  0.99006756  0.05871354  0.18290479    -0.23000
C380        C  0.99542630  0.09434698  0.18896968     0.00000
H381        H  0.99871508  0.02925670  0.13476681     0.13800
H382        H  0.98012504  0.03764796  0.20223666     0.13800
N383        N  0.12681274  0.03812902  0.13464521    -0.02500
C384        C  0.10358673  0.03279006  0.10915323     0.00100
C385        C  0.07485655  0.00970202  0.12279868    -0.22800
C386        C  0.07489406  0.00659434  0.15806590    -0.23000
C387        C  0.10511129  0.02557241  0.16552798     0.00000
H388        H  0.05232431  0.00030140  0.10936248     0.13800
H389        H  0.05408476  0.99248547  0.17665254     0.13800
N390        N  0.11235742  0.16616636  0.02978321    -0.02500
C391        C  0.07707405  0.15276623  0.03124798     0.00100
C392        C  0.06621284  0.15913333  0.99748764    -0.22800
C393        C  0.09944420  0.15254350  0.97578278    -0.23000
C394        C  0.12712604  0.15488294  0.99768110     0.00000
H395        H  0.03886382  0.15317420  0.99002388     0.13800
H396        H  0.10173968  0.14159945  0.94976188     0.13800
C397        C  0.18879140  0.20206191  0.30586314     0.87400
C398        C  0.21913771  0.17594350  0.31565333    -0.52800
C399        C  0.20696986  0.14475933  0.33186523     0.10400
C400        C  0.16342558  0.14455005  0.34067107     0.21300
C401        C  0.16399867  0.17846326  0.28477542    -0.53500
C402        C  0.15077021  0.14728953  0.30373167     0.10500
C403        C  0.16303386  0.21079141  0.33835762    -0.53000
C404        C  0.14827820  0.18197098  0.35675302     0.11000
H405        H  0.24870751  0.18156617  0.30764246     0.15600
H406        H  0.15304630  0.12034192  0.35690819     0.01300
H407        H  0.15112022  0.18883521  0.26196608     0.15900
H408        H  0.15759807  0.23819010  0.34688436     0.15700
C409        C  0.26683698  0.19903455  0.21398205     0.87400
C410        C  0.28363367  0.22407613  0.18390732    -0.52800
C411        C  0.30289914  0.20877173  0.15525686     0.10400
C412        C  0.30014498  0.16683274  0.15863637     0.21300
C413        C  0.23953838  0.17683979  0.19722006    -0.53500
C414        C  0.25662196  0.15900665  0.16796986     0.10500
C415        C  0.29678682  0.17115708  0.22241616    -0.53000
C416        C  0.31651090  0.15553812  0.19359238     0.11000
H417        H  0.28237610  0.25270709  0.18728600     0.15600
H418        H  0.31420540  0.15290991  0.13504923     0.01300
H419        H  0.20995397  0.17488146  0.20794611     0.15900
H420        H  0.30625622  0.16887500  0.24851174     0.15700
C421        C  0.30337347  0.28256610  0.30473591     0.87400
C422        C  0.32834552  0.25184056  0.31771398    -0.52800
C423        C  0.36150768  0.26202869  0.32905805     0.10400
C424        C  0.36603240  0.30311479  0.32637792     0.21300
C425        C  0.29743219  0.30719932  0.33831989    -0.53500
C426        C  0.33084831  0.31734969  0.35049846     0.10500
C427        C  0.33136782  0.30199424  0.27622861    -0.53000
C428        C  0.36107013  0.31808225  0.28800894     0.11000
H429        H  0.31835753  0.22449247  0.32014628     0.15600
H430        H  0.39394122  0.30951394  0.33358520     0.01300
H431        H  0.26969616  0.31613863  0.35043694     0.15900
H432        H  0.32270910  0.31034877  0.25064870     0.15700
C433        C  0.20636663  0.29704564  0.20970864     0.87400
C434        C  0.23765113  0.31546078  0.18565489    -0.52800
C435        C  0.22840004  0.33023079  0.15417392     0.10400
C436        C  0.18640040  0.32363635  0.14947830     0.21300
C437        C  0.17312611  0.32461211  0.21459748    -0.53500
C438        C  0.16185658  0.33807857  0.18315585     0.10500
C439        C  0.19350798  0.26953545  0.18536258    -0.53000
C440        C  0.18242972  0.28294760  0.15440135     0.11000
H441        H  0.26557623  0.31573123  0.19359053     0.15600
H442        H  0.17821359  0.33440162  0.12379410     0.01300
H443        H  0.16026200  0.33312553  0.24047194     0.15900
H444        H  0.19318113  0.24122635  0.19091453     0.15700
C445        C  0.26767212  0.26916080  0.28641682     0.87400
C446        C  0.23425470  0.25187469  0.31039374    -0.52800
C447        C  0.20842457  0.23580051  0.29178309     0.10400
C448        C  0.21667103  0.24030026  0.25264916     0.21300
C449        C  0.28209270  0.23903184  0.26098994    -0.53500
C450        C  0.25535024  0.22297895  0.24458599     0.10500
C451        C  0.24737205  0.29607973  0.26186143    -0.53000
C452        C  0.22104829  0.28056533  0.24347812     0.11000
H453        H  0.23473052  0.24686846  0.33872235     0.15600
H454        H  0.19460701  0.22722550  0.24114822     0.01300
H455        H  0.31197289  0.23222821  0.25476675     0.15900
H456        H  0.25546292  0.32394312  0.25712538     0.15700
C457        C  0.04501506  0.05472790  0.53933145     0.87400
C458        C  0.05902174  0.08929741  0.52154618    -0.52800
C459        C  0.07174995  0.11353256  0.54381489     0.10400
C460        C  0.07391386  0.09653773  0.58243237     0.21300
C461        C  0.08030179  0.03908092  0.55339210    -0.53500
C462        C  0.09456871  0.05812871  0.57837111     0.10500
C463        C  0.01729546  0.06832465  0.57167367    -0.53000
C464        C  0.03210614  0.08862568  0.59512864     0.11000
H465        H  0.05675284  0.09411852  0.99355014     0.15600
H466        H  0.08650237  0.11448653  0.60001433     0.01300
H467        H  0.08866480  0.51089840  0.54951221     0.15900
H468        H  0.48710854  0.06172981  0.57625406     0.15700
C469        C  0.44960616  0.03087509  0.95470089     0.87400
C470        C  0.43206300  0.00338542  0.93390262    -0.52800
C471        C  0.39971175  0.01565630  0.92091969     0.10400
C472        C  0.38776965  0.05434259  0.93202305     0.21300
C473        C  0.45596589  0.06210418  0.92819944    -0.53500
C474        C  0.42357134  0.07741330  0.91846065     0.10500
C475        C  0.41831193  0.04038448  0.98394393    -0.53000
C476        C  0.38498580  0.05070850  0.97294876     0.11000
H477        H  0.44618018  0.47842180  0.92666970     0.15600
H478        H  0.36150660  0.06482854  0.92207819     0.01300
H479        H  0.48302968  0.07552532  0.92349863     0.15900
H480        H  0.42210313  0.03855738  0.51191032     0.15700
C481        C  0.44956965  0.45569154  0.54768466     0.87400
C482        C  0.47131416  0.43767861  0.57596143    -0.52800
C483        C  0.45525574  0.40881211  0.59427124     0.10400
C484        C  0.41505690  0.40228299  0.58318157     0.21300
C485        C  0.43795925  0.42595526  0.52512643    -0.53500
C486        C  0.42022845  0.39830689  0.54302835     0.10500
C487        C  0.41243813  0.46762663  0.56863531    -0.53000
C488        C  0.39287628  0.43953003  0.58651975     0.11000
H489        H  0.50086933  0.44354853  0.57710972     0.15600
H490        H  0.40139079  0.37842099  0.59720408     0.01300
H491        H  0.44283336  0.42443616  0.49690922     0.15900
H492        H  0.40354954  0.99526850  0.57007471     0.15700
C493        C  0.04147494  0.43985215  0.95880787     0.87400
C494        C  0.06546948  0.41530108  0.97965032    -0.52800
C495        C  0.08492454  0.38958291  0.96028663     0.10400
C496        C  0.07114323  0.38622815  0.92296149     0.21300
C497        C  0.06555938  0.45088985  0.92260437    -0.53500
C498        C  0.08110547  0.42239499  0.90340086     0.10500
C499        C  0.01262362  0.41279712  0.94878837    -0.53000
C500        C  0.02761348  0.38726317  0.92573148     0.11000
H501        H  0.07449634  0.42371100  0.50479910     0.15600
H502        H  0.08275153  0.36164158  0.91003594     0.01300
H503        H  0.07061263  0.47869805  0.91374043     0.15900
H504        H  0.48319434  0.41839287  0.95092447     0.15700
C505        C  0.02563735  0.02718376  0.51681250     0.87400
C506        C  0.50192493  0.04445232  0.48910417    -0.52800
C507        C  0.48350561  0.02071875  0.97200276     0.10400
C508        C  0.48656716  0.48279696  0.98633440     0.21300
C509        C  0.49571096  0.50533809  0.54177161    -0.53500
C510        C  0.47434913  0.48312178  0.52619112     0.10500
C511        C  0.04963449  0.49701243  0.49567393    -0.53000
C512        C  0.02735762  0.47276480  0.98012062     0.11000
H513        H  0.49819376  0.07365927  0.98559758     0.15600
H514        H  0.46985226  0.46625332  0.97277831     0.01300
H515        H  0.49391353  0.50496041  0.57049823     0.15900
H516        H  0.08020560  0.49454692  0.49328566     0.15700
N517        N  0.38541520  0.38361296  0.76468806    -0.02500
C518        C  0.35926425  0.35880569  0.78007064     0.00100
C519        C  0.32395113  0.37535149  0.78721695    -0.22800
C520        C  0.32709653  0.40990727  0.77718703    -0.23000
C521        C  0.36448919  0.41600355  0.76453906     0.00000
H522        H  0.29729466  0.36344919  0.79754064     0.13800
H523        H  0.30343324  0.42887199  0.77906458     0.13800
N524        N  0.30788288  0.36549217  0.89602594    -0.02500
C525        C  0.33633705  0.34392620  0.87946037     0.00100
C526        C  0.36760757  0.36565474  0.86933197    -0.22800
C527        C  0.35351749  0.39951224  0.86502490    -0.23000
C528        C  0.31624993  0.39803576  0.87886319     0.00000
H529        H  0.39577254  0.35830952  0.85759529     0.13800
H530        H  0.36817158  0.42210579  0.85119354     0.13800
N531        N  0.24430580  0.37977663  0.60841447    -0.02500
C532        C  0.25610500  0.35323490  0.63064447     0.00100
C533        C  0.28384893  0.36704258  0.64834241    -0.22800
C534        C  0.27552918  0.40255047  0.64973124    -0.23000
C535        C  0.25079021  0.41002414  0.62573592     0.00000
H536        H  0.30130988  0.35333628  0.66610051     0.13800
H537        H  0.28494648  0.42083850  0.66788002     0.13800
N538        N  0.36602196  0.21626946  0.61747116    -0.02500
C539        C  0.33314710  0.23118965  0.63294527     0.00100
C540        C  0.34049667  0.26587278  0.64287668    -0.22800
C541        C  0.37872434  0.26778326  0.64203881    -0.23000
C542        C  0.39325984  0.23601263  0.62848909     0.00000
H543        H  0.32095105  0.28567950  0.65514127     0.13800
H544        H  0.39383191  0.28847367  0.65302804     0.13800
O545        O  0.29243507  0.33760249  0.95524931    -0.70800
O546        O  0.26023935  0.34586363  0.55643201    -0.71000
O547        O  0.22734318  0.35150516  0.99688904    -0.70900
O548        O  0.32783361  0.33043708  0.51624161    -0.70900
O549        O  0.34181407  0.38673903  0.51152196    -0.70900
O550        O  0.24003296  0.40824890  0.99373421    -0.70900
O551        O  0.27388356  0.40244056  0.55198621    -0.70800
O552        O  0.30436586  0.39445162  0.95167752    -0.71000
V553        V  0.27792706  0.34219347  0.50637719     1.35200
V554        V  0.29042209  0.39661671  0.50231698     1.35200
C555        C  0.30124333  0.36563146  0.93551618     0.78400
C556        C  0.25916388  0.37620981  0.57087694     0.78500
C557        C  0.21669668  0.38354357  0.99227531     0.74300
C558        C  0.35228414  0.35427906  0.51685280     0.78300
O559        O  0.35100051  0.22372636  0.96266815    -0.70800
O560        O  0.34168692  0.22197760  0.56314076    -0.71000
O561        O  0.36112408  0.27100754  0.50984124    -0.70900
O562        O  0.33247258  0.17392971  0.51692444    -0.70900
O563        O  0.39141214  0.15763742  0.51622938    -0.70900
O564        O  0.41966395  0.25335169  0.50871204    -0.70900
O565        O  0.40059006  0.20508290  0.56194313    -0.70800
O566        O  0.40997413  0.20816476  0.96124910    -0.71000
V567        V  0.34772541  0.22220216  0.51303244     1.35200
V568        V  0.40434430  0.20609322  0.51178700     1.35200
C569        C  0.38281842  0.21786108  0.94462442     0.78400
C570        C  0.36923842  0.21297231  0.57973185     0.78500
C571        C  0.39558541  0.27845801  0.50733390     0.78300
C572        C  0.35721284  0.14947718  0.51966114     0.78300
N573        N  0.39161289  0.34389612  0.51940461    -0.02500
C574        C  0.42093700  0.36481268  0.52441157     0.00100
C575        C  0.45506375  0.35111639  0.50848436    -0.22800
C576        C  0.44773383  0.31955884  0.49522377    -0.23000
C577        C  0.40934519  0.31483584  0.50372391     0.00000
H578        H  0.48262663  0.36262754  0.50690574     0.13800
H579        H  0.46874492  0.30042594  0.48367684     0.13800
N580        N  0.39686711  0.24674109  0.88180355    -0.02500
C581        C  0.38674846  0.21829636  0.90523528     0.00100
C582        C  0.37403879  0.19007803  0.88847447    -0.22800
C583        C  0.37432420  0.20112467  0.85380424    -0.23000
C584        C  0.38408670  0.23714685  0.85091714     0.00000
H585        H  0.36335328  0.16490518  0.90070721     0.13800
H586        H  0.36266446  0.18597294  0.83437635     0.13800
N587        N  0.11176857  0.38149496  0.71025056    -0.02500
C588        C  0.13290728  0.36770898  0.68079149     0.00100
C589        C  0.14735683  0.39548791  0.65781457    -0.22800
C590        C  0.14468920  0.42541519  0.67702838    -0.23000
C591        C  0.12540354  0.41591960  0.70965475     0.00000
H592        H  0.16607297  0.39330496  0.63316106     0.13800
H593        H  0.15742155  0.45100985  0.66886061     0.13800
O594        O  0.48975791  0.39520705  0.67623878    -0.70800
O595        O  0.00307933  0.40651109  0.77450295    -0.71000
O596        O  0.04912210  0.40384080  0.71329676    -0.70900
O597        O  0.44384853  0.40490073  0.73824475    -0.70900
O598        O  0.44350188  0.34766301  0.75126271    -0.70900
O599        O  0.05392824  0.34625181  0.72313673    -0.70900
O600        O  0.00520015  0.34872661  0.78444300    -0.70800
O601        O  0.49071818  0.33782307  0.68828484    -0.71000
V602        V  0.49664443  0.40159655  0.72586208     1.35200
V603        V  0.49869516  0.34629965  0.73599202     1.35200
C604        C  0.48727453  0.36329389  0.66565166     0.78400
C605        C  0.00572857  0.37946380  0.79633175     0.78500
C606        C  0.07041169  0.37662182  0.71598585     0.78300
C607        C  0.42540645  0.37809335  0.75090993     0.78300
O608        O  0.06347761  0.23766417  0.86508947    -0.70800
O609        O  0.45860832  0.26187721  0.85386807    -0.71000
O610        O  0.02227698  0.30234484  0.84737002    -0.70900
O611        O  0.49639293  0.20352438  0.86972766    -0.70900
O612        O  0.49264661  0.21432824  0.92551803    -0.70900
O613        O  0.00723133  0.31306546  0.90307798    -0.70900
O614        O  0.44696700  0.26752744  0.91077262    -0.70800
O615        O  0.05331117  0.25422978  0.91936740    -0.71000
V616        V  0.01104380  0.25167592  0.86001131     1.35200
V617        V  0.00052006  0.26263598  0.91353694     1.35200
C618        C  0.07536755  0.23860961  0.89528803     0.78400
C619        C  0.43451212  0.26168269  0.88175844     0.78500
C620        C  0.01548250  0.32548069  0.87137810     0.78300
C621        C  0.48726799  0.19314122  0.90179674     0.78300
N622        N  0.01442931  0.36481637  0.86425679    -0.02500
C623        C  0.01038535  0.38885015  0.89122498     0.00100
C624        C  0.99906829  0.42249526  0.87872186    -0.22800
C625        C  0.99746192  0.42080364  0.84393726    -0.23000
C626        C  0.00663926  0.38608687  0.83468679     0.00000
H627        H  0.99624336  0.44739667  0.89251443     0.13800
H628        H  0.99115319  0.44351916  0.82672319     0.13800
N629        N  0.11167360  0.22122202  0.90294709    -0.02500
C630        C  0.12807684  0.18804392  0.89237236     0.00100
C631        C  0.15498022  0.17710110  0.91363023    -0.22800
C632        C  0.16136267  0.20577462  0.93190281    -0.23000
C633        C  0.13331614  0.23101324  0.92781596     0.00000
H634        H  0.17423189  0.15402769  0.91062563     0.13800
H635        H  0.18430949  0.20798475  0.94739217     0.13800
N636        N  0.37188844  0.13001660  0.72052556    -0.02500
C637        C  0.35791738  0.15285570  0.69608325     0.00100
C638        C  0.37374941  0.18633447  0.69833817    -0.22800
C639        C  0.39293437  0.18521583  0.72672763    -0.23000
C640        C  0.39019941  0.15076650  0.74067239     0.00000
H641        H  0.36317760  0.21165568  0.68911272     0.13800
H642        H  0.40526902  0.20789626  0.73744165     0.13800
O643        O  0.34489704  0.47700569  0.76223174    -0.70800
O644        O  0.34134705  0.07476608  0.73119607    -0.71000
O645        O  0.33333854  0.51092477  0.70226067    -0.70900
O646        O  0.35376501  0.03846537  0.79164357    -0.70900
O647        O  0.41291562  0.02602785  0.77557603    -0.70900
O648        O  0.39331544  0.01457410  0.68221938    -0.70900
O649        O  0.40268180  0.07274964  0.72030763    -0.70800
O650        O  0.40262757  0.46898242  0.73801577    -0.71000
V651        V  0.34450646  0.02550920  0.74620048     1.35200
V652        V  0.40214763  0.02135989  0.72903042     1.35200
C653        C  0.37261436  0.45536628  0.75453132     0.78400
C654        C  0.37180226  0.09117731  0.72291914     0.78500
C655        C  0.36069631  0.00480663  0.67836171     0.78300
C656        C  0.38577113  0.02972699  0.80013300     0.78300
O657        O  0.20597303  0.97483356  0.89593267    -0.70800
O658        O  0.30666542  0.00768766  0.89962503    -0.71000
O659        O  0.23722871  0.03935476  0.89683284    -0.70900
O660        O  0.27357214  0.44355440  0.90260098    -0.70900
O661        O  0.29085042  0.44651388  0.84560753    -0.70900
O662        O  0.24239341  0.03942937  0.83929598    -0.70900
O663        O  0.31244417  0.01435399  0.84247283    -0.70800
O664        O  0.22043865  0.47051326  0.83900080    -0.71000
V665        V  0.25572247  0.99167522  0.89777913     1.35200
V666        V  0.26610500  0.99270760  0.84259695     1.35200
C667        C  0.19754489  0.46508982  0.86651441     0.78400
C668        C  0.32739767  0.01532203  0.87032921     0.78500
C669        C  0.23425311  0.05623553  0.86777036     0.78300
C670        C  0.29110735  0.42972773  0.87552776     0.78300
N671        N  0.36809093  0.01869696  0.86756567    -0.02500
C672        C  0.38640150  0.99845394  0.89075755     0.00100
C673        C  0.41147745  0.97463683  0.87234550    -0.22800
C674        C  0.41671905  0.98736002  0.83823934    -0.23000
C675        C  0.39105442  0.01536069  0.83589413     0.00000
H676        H  0.42820966  0.95318849  0.88290914     0.13800
H677        H  0.43589424  0.97610643  0.81687100     0.13800
N678        N  0.22855525  0.09483989  0.86760420    -0.02500
C679        C  0.23517016  0.11444394  0.83685917     0.00100
C680        C  0.27331785  0.12385567  0.83205223    -0.22800
C681        C  0.28230159  0.12588622  0.86571050    -0.23000
C682        C  0.25221584  0.11048519  0.88674316     0.00000
H683        H  0.28874240  0.13750904  0.80907783     0.13800
H684        H  0.30562048  0.13993320  0.87390306     0.13800
O685        O  0.10631967  0.32653606  0.50674100    -0.70800
O686        O  0.09058984  0.22690264  0.53576051    -0.71000
O687        O  0.09971087  0.28549069  0.57178360    -0.70900
O688        O  0.09687289  0.26469390  0.97376027    -0.70900
O689        O  0.15805132  0.26524231  0.96712408    -0.70900
O690        O  0.15945072  0.27081658  0.56409353    -0.70900
O691        O  0.15093694  0.21764023  0.52222991    -0.70800
O692        O  0.16629237  0.31795129  0.50827651    -0.71000
V693        V  0.09913580  0.27662396  0.52219828     1.35200
V694        V  0.15736145  0.26839868  0.51559116     1.35200
C695        C  0.13975852  0.33860183  0.50076298     0.78400
C696        C  0.11829314  0.20473235  0.53115336     0.78500
C697        C  0.12966444  0.27638418  0.58510036     0.78300
C698        C  0.12812625  0.25802163  0.95502393     0.78300
N699        N  0.14776610  0.37364828  0.98305783    -0.02500
C700        C  0.12574515  0.39348392  0.96248879     0.00100
C701        C  0.14322929  0.42565288  0.95084250    -0.22800
C702        C  0.17690171  0.42540403  0.96287609    -0.23000
C703        C  0.17999916  0.39325373  0.98130557     0.00000
H704        H  0.13225691  0.44875645  0.93723458     0.13800
H705        H  0.19740979  0.44653140  0.95836321     0.13800
O706        O  0.50359220  0.26595329  0.59786920    -0.70800
O707        O  0.01128305  0.16470331  0.61801423    -0.71000
O708        O  0.45410325  0.21317495  0.60611814    -0.70900
O709        O  0.05849344  0.22101200  0.60682074    -0.70900
O710        O  0.05022943  0.22667552  0.66402293    -0.70900
O711        O  0.44454554  0.22630781  0.66172707    -0.70900
O712        O  0.99779134  0.17407141  0.67416924    -0.70800
O713        O  0.49688507  0.27595099  0.65420817    -0.71000
V714        V  0.50655423  0.21582244  0.60831229     1.35200
V715        V  0.49755581  0.22508190  0.66253311     1.35200
C716        C  0.50081300  0.28815995  0.62250801     0.78400
C717        C  0.00617108  0.15188180  0.64982420     0.78500
C718        C  0.43180910  0.22320148  0.63247851     0.78300
C719        C  0.07173418  0.22771805  0.63469859     0.78300
N720        N  0.48433190  0.35523228  0.62851530    -0.02500
C721        C  0.48432910  0.38026909  0.60086869     0.00100
C722        C  0.50919218  0.37003318  0.57173883    -0.22800
C723        C  0.52097363  0.33617967  0.57880542    -0.23000
C724        C  0.50427742  0.32684724  0.61260212     0.00000
H725        H  0.51503111  0.38446821  0.54633364     0.13800
H726        H  0.53669058  0.31887363  0.55971995     0.13800
N727        N  0.12976159  0.26548918  0.62210247    -0.02500
C728        C  0.16482489  0.25857918  0.63157711     0.00100
C729        C  0.17069920  0.22199033  0.63663312    -0.22800
C730        C  0.13596835  0.20708791  0.64066197    -0.23000
C731        C  0.11172400  0.23428259  0.63319196     0.00000
H732        H  0.19636373  0.20932136  0.64359305     0.13800
H733        H  0.12814143  0.17996917  0.64926953     0.13800
O734        O  0.24407462  0.14585629  0.93672357    -0.70800
O735        O  0.24159406  0.15169616  0.53559904    -0.71000
O736        O  0.29283099  0.13423413  0.98034570    -0.70900
O737        O  0.19174042  0.16372395  0.49073953    -0.70900
O738        O  0.17413749  0.10843932  0.49003811    -0.70900
O739        O  0.27602153  0.07955080  0.99638039    -0.70900
O740        O  0.21617954  0.09899228  0.54314897    -0.70800
O741        O  0.23383084  0.08850309  0.94465816    -0.71000
V742        V  0.24212077  0.14802728  0.98621509     1.35200
V743        V  0.22532501  0.09475044  0.99354542     1.35200
C744        C  0.24295773  0.11519653  0.92419552     0.78400
C745        C  0.22714533  0.12675299  0.55627165     0.78500
C746        C  0.30178080  0.10238570  0.98826278     0.78300
C747        C  0.16584264  0.14161551  0.49101407     0.78300
N748        N  0.33935105  0.09494223  0.99480512    -0.02500
C749        C  0.35212709  0.06115541  0.99899189     0.00100
C750        C  0.35523793  0.05469000  0.03493979    -0.22800
C751        C  0.35643432  0.08776948  0.04930869    -0.23000
C752        C  0.34734012  0.11194935  0.52310308     0.00000
H753        H  0.36488065  0.02995949  0.04671318     0.13800
H754        H  0.36536308  0.09356680  0.57445749     0.13800
O755        O  0.23143185  0.46428031  0.65246119    -0.70800
O756        O  0.24708221  0.06472824  0.64845731    -0.71000
O757        O  0.18562462  0.02441474  0.65517883    -0.70900
O758        O  0.29063502  0.00512464  0.64772764    -0.70900
O759        O  0.29527045  0.99959858  0.59084890    -0.70900
O760        O  0.18787549  0.02840809  0.59803325    -0.70900
O761        O  0.25527147  0.06365067  0.59096743    -0.70800
O762        O  0.23126397  0.46422400  0.59540869    -0.71000
V763        V  0.23853523  0.01461196  0.64967629     1.35200
V764        V  0.24201634  0.01440229  0.59465347     1.35200
C765        C  0.23407479  0.44686008  0.62424719     0.78400
C766        C  0.25312448  0.08167075  0.61865065     0.78500
C767        C  0.16823463  0.03104890  0.62874395     0.78300
C768        C  0.31048658  0.99606464  0.61937546     0.78300
N769        N  0.34765760  0.47916468  0.62183904    -0.02500
C770        C  0.35684303  0.44524950  0.61035499     0.00100
C771        C  0.35575326  0.42113206  0.63927069    -0.22800
C772        C  0.35955796  0.44092661  0.66727814    -0.23000
C773        C  0.35757647  0.97614147  0.65480250     0.00000
H774        H  0.35993977  0.39230016  0.63962052     0.13800
H775        H  0.36459113  0.43053154  0.69314608     0.13800
N776        N  0.24846918  0.12045499  0.61629620    -0.02500
C777        C  0.23444494  0.13599337  0.64711019     0.00100
C778        C  0.19574826  0.14114861  0.64832943    -0.22800
C779        C  0.18815883  0.13894339  0.61406698    -0.23000
C780        C  0.22223189  0.13048473  0.59475463     0.00000
H781        H  0.17633108  0.15066974  0.67030968     0.13800
H782        H  0.16157265  0.14457922  0.60391578     0.13800
O783        O  0.15100812  0.46067778  0.74241760    -0.70800
O784        O  0.14059321  0.05606737  0.77966081    -0.71000
O785        O  0.15150881  0.48824970  0.80828220    -0.70900
O786        O  0.14201722  0.02619066  0.71444927    -0.70900
O787        O  0.08154071  0.01920889  0.72610882    -0.70900
O788        O  0.09123496  0.47899929  0.81883316    -0.70900
O789        O  0.08065918  0.04588314  0.79090450    -0.70800
O790        O  0.09036974  0.45337409  0.75291634    -0.71000
V791        V  0.14520788  0.50764600  0.76189811     1.35200
V792        V  0.08715589  0.49996045  0.77233866     1.35200
C793        C  0.12210351  0.44271876  0.73805626     0.78400
C794        C  0.10759696  0.06716718  0.79177027     0.78500
C795        C  0.12358881  0.47588090  0.82914385     0.78300
C796        C  0.11033706  0.02535171  0.70334805     0.78300
N797        N  0.12941808  0.45510530  0.86153296    -0.02500
C798        C  0.10896636  0.42486580  0.87018721     0.00100
C799        C  0.13268169  0.39479515  0.86391911    -0.22800
C800        C  0.16861622  0.40642672  0.86269339    -0.23000
C801        C  0.16514973  0.44304901  0.86430644     0.00000
H802        H  0.12558241  0.36672963  0.86657648     0.13800
H803        H  0.19412528  0.38997449  0.86277191     0.13800
O804        O  0.43028337  0.16198025  0.78142269    -0.70800
O805        O  0.02721284  0.13018561  0.78921273    -0.71000
O806        O  0.48740086  0.13781697  0.73571731    -0.70900
O807        O  0.47122850  0.15456857  0.83542593    -0.70900
O808        O  0.43875351  0.10590783  0.84417101    -0.70900
O809        O  0.48176182  0.08118989  0.75108971    -0.70900
O810        O  0.00548041  0.08099841  0.81664322    -0.70800
O811        O  0.41529402  0.10630311  0.77823051    -0.71000
V812        V  0.47882710  0.14554866  0.78583179     1.35200
V813        V  0.46031661  0.09388502  0.79744760     1.35200
C814        C  0.41023264  0.13913449  0.77000212     0.78400
C815        C  0.03171511  0.10324287  0.80958697     0.78500
C816        C  0.48840697  0.10557493  0.72652175     0.78300
C817        C  0.45193611  0.13302583  0.85695150     0.78300
N818        N  0.44686010  0.13792961  0.89492163    -0.02500
C819        C  0.42516618  0.11693561  0.91988755     0.00100
C820        C  0.42934494  0.12808838  0.95332227    -0.22800
C821        C  0.45741997  0.15235411  0.94940759    -0.23000
C822        C  0.46657625  0.15979428  0.91356866     0.00000
H823        H  0.42067846  0.11343824  0.97804318     0.13800
H824        H  0.46879884  0.16454077  0.97093993     0.13800
N825        N  0.09868448  0.10106376  0.80931707    -0.02500
C826        C  0.11191179  0.13563558  0.80416509     0.00100
C827        C  0.08663127  0.15797215  0.82424168    -0.22800
C828        C  0.06172991  0.13664751  0.84526878    -0.23000
C829        C  0.06420328  0.10446164  0.82880701     0.00000
H830        H  0.08863681  0.18665029  0.82642823     0.13800
H831        H  0.03741435  0.14676063  0.86213935     0.13800
N832        N  0.00795114  0.11309391  0.65768672    -0.02500
C833        C  0.01361810  0.08691244  0.63299659     0.00100
C834        C  0.00139848  0.05414669  0.64807905    -0.22800
C835        C  0.99127438  0.05851372  0.68316081    -0.23000
C836        C  0.99579953  0.09430392  0.68919428     0.00000
H837        H  0.00058676  0.02905733  0.63503823     0.13800
H838        H  0.98152285  0.03735326  0.70246601     0.13800
N839        N  0.12694339  0.03817137  0.63447197    -0.02500
C840        C  0.10393844  0.03291615  0.60883753     0.00100
C841        C  0.07568153  0.00906910  0.62195152    -0.22800
C842        C  0.07571862  0.00528642  0.65718035    -0.23000
C843        C  0.10535442  0.02481456  0.66503808     0.00000
H844        H  0.05336663  0.99955275  0.60829653     0.13800
H845        H  0.05514816  0.99059951  0.67550722     0.13800
N846        N  0.11259133  0.16618799  0.52937251    -0.02500
C847        C  0.07724655  0.15298879  0.53108240     0.00100
C848        C  0.06621800  0.15933931  0.49736972    -0.22800
C849        C  0.09930951  0.15256979  0.47549972    -0.23000
C850        C  0.12712768  0.15474198  0.49726747     0.00000
H851        H  0.03875320  0.15349204  0.49007140     0.13800
H852        H  0.10141673  0.14166066  0.44947404     0.13800
C853        C  0.18908951  0.20216068  0.80586423     0.87400
C854        C  0.21957654  0.17606312  0.81528225    -0.52800
C855        C  0.20759153  0.14489480  0.83157993     0.10400
C856        C  0.16404626  0.14451790  0.84062891     0.21300
C857        C  0.16408156  0.17858421  0.78492355    -0.53500
C858        C  0.15106470  0.14727453  0.80380645     0.10500
C859        C  0.16360790  0.21075737  0.83860578    -0.53000
C860        C  0.14891917  0.18185144  0.85692196     0.11000
H861        H  0.24909205  0.18173730  0.80710312     0.15600
H862        H  0.15383359  0.12024263  0.85685538     0.01300
H863        H  0.15098643  0.18904219  0.76226692     0.15900
H864        H  0.15815985  0.23810534  0.84725197     0.15700
C865        C  0.26706039  0.19896886  0.71373592     0.87400
C866        C  0.28373450  0.22402447  0.68360546    -0.52800
C867        C  0.30312367  0.20877239  0.65497326     0.10400
C868        C  0.30048224  0.16682713  0.65837277     0.21300
C869        C  0.23983545  0.17666262  0.69699284    -0.53500
C870        C  0.25694993  0.15884713  0.66772193     0.10500
C871        C  0.29709668  0.17115860  0.72215476    -0.53000
C872        C  0.31695843  0.15567873  0.69331149     0.11000
H873        H  0.28226578  0.25266977  0.68692804     0.15600
H874        H  0.31458494  0.15292831  0.63478674     0.01300
H875        H  0.21026540  0.17464924  0.70774597     0.15900
H876        H  0.30658882  0.16894251  0.74824214     0.15700
C877        C  0.30368536  0.28286224  0.80433568     0.87400
C878        C  0.32881219  0.25218468  0.81716681    -0.52800
C879        C  0.36187080  0.26243046  0.82864709     0.10400
C880        C  0.36622918  0.30353914  0.82612177     0.21300
C881        C  0.29762106  0.30736953  0.83802305    -0.53500
C882        C  0.33096128  0.31762926  0.85027649     0.10500
C883        C  0.33156512  0.30256106  0.77592359    -0.53000
C884        C  0.36128949  0.31859264  0.78777917     0.11000
H885        H  0.31892581  0.22480505  0.81951851     0.15600
H886        H  0.39410588  0.30998648  0.83335005     0.01300
H887        H  0.26983730  0.31615564  0.85016128     0.15900
H888        H  0.32284243  0.31105606  0.75041454     0.15700
C889        C  0.20627966  0.29689949  0.70965887     0.87400
C890        C  0.23741479  0.31549224  0.68564253    -0.52800
C891        C  0.22812501  0.33016346  0.65416476     0.10400
C892        C  0.18614512  0.32335994  0.64947040     0.21300
C893        C  0.17284763  0.32425454  0.71460328    -0.53500
C894        C  0.16149571  0.33768085  0.68318233     0.10500
C895        C  0.19365038  0.26929549  0.68529097    -0.53000
C896        C  0.18243614  0.28262822  0.65436073     0.11000
H897        H  0.26535318  0.31581715  0.69353895     0.15600
H898        H  0.17790586  0.33407161  0.62378958     0.01300
H899        H  0.15995960  0.33269872  0.74048671     0.15900
H900        H  0.19366225  0.24098817  0.69079806     0.15700
C901        C  0.26798158  0.26929478  0.78607866     0.87400
C902        C  0.23463280  0.25199977  0.81017420    -0.52800
C903        C  0.20869979  0.23589004  0.79169304     0.10400
C904        C  0.21687478  0.24025797  0.75254482     0.21300
C905        C  0.28237045  0.23913659  0.76065374    -0.53500
C906        C  0.25558831  0.22297636  0.74436233     0.10500
C907        C  0.24754001  0.29611933  0.76157962    -0.53000
C908        C  0.22114234  0.28051529  0.74334222     0.11000
H909        H  0.23520860  0.24704609  0.83849678     0.15600
H910        H  0.19477235  0.22712549  0.74112933     0.01300
H911        H  0.31225060  0.23240901  0.75433560     0.15900
H912        H  0.25553140  0.32401036  0.75681957     0.15700
C913        C  0.04455130  0.55449150  0.03900659     0.87400
C914        C  0.05887490  0.58902287  0.02122290    -0.52800
C915        C  0.07153684  0.61327008  0.04357757     0.10400
C916        C  0.07327650  0.59630348  0.08225383     0.21300
C917        C  0.07955455  0.53866233  0.05351335    -0.53500
C918        C  0.09386420  0.55784960  0.07841356     0.10500
C919        C  0.01665632  0.56831083  0.07108310    -0.53000
C920        C  0.03135254  0.58853006  0.09465122     0.11000
H921        H  0.05695813  0.59426160  0.49364952     0.15600
H922        H  0.08575119  0.61423728  0.09992921     0.01300
H923        H  0.08801538  0.01056425  0.04982806     0.15900
H924        H  0.48762856  0.56173931  0.07671633     0.15700
C925        C  0.44905029  0.53047906  0.45451626     0.87400
C926        C  0.43144842  0.50296331  0.43384653    -0.52800
C927        C  0.39903523  0.51523738  0.42104949     0.10400
C928        C  0.38725043  0.55404157  0.43195196     0.21300
C929        C  0.45549913  0.56155360  0.42785668    -0.53500
C930        C  0.42312061  0.57703407  0.41829313     0.10500
C931        C  0.41782283  0.54011337  0.48378967    -0.53000
C932        C  0.38452925  0.55049237  0.47283317     0.11000
H933        H  0.44553026  0.97789484  0.42696211     0.15600
H934        H  0.36099274  0.56457242  0.42203557     0.01300
H935        H  0.48264588  0.57484165  0.42304738     0.15900
H936        H  0.42256812  0.53884254  0.01170240     0.15700
C937        C  0.44952634  0.95627560  0.04748388     0.87400
C938        C  0.47133651  0.93745322  0.07526891    -0.52800
C939        C  0.45488752  0.90876126  0.09354916     0.10400
C940        C  0.41451209  0.90294922  0.08261380     0.21300
C941        C  0.43694156  0.92720495  0.02463130    -0.53500
C942        C  0.41917397  0.89946518  0.04237634     0.10500
C943        C  0.41278486  0.96850914  0.06903272    -0.53000
C944        C  0.39292119  0.94041912  0.08665739     0.11000
H945        H  0.50102774  0.94286755  0.07627540     0.15600
H946        H  0.40062087  0.87908268  0.09640062     0.01300
H947        H  0.44083267  0.92637596  0.99629101     0.15900
H948        H  0.40415384  0.49641259  0.07121425     0.15700
C949        C  0.04245490  0.94007356  0.45920835     0.87400
C950        C  0.06668612  0.91564730  0.47994462    -0.52800
C951        C  0.08586757  0.88972467  0.46059172     0.10400
C952        C  0.07187268  0.88630731  0.42338632     0.21300
C953        C  0.06641564  0.95099537  0.42291574    -0.53500
C954        C  0.08175692  0.92241096  0.40371859     0.10500
C955        C  0.01354213  0.91287439  0.44946903    -0.53000
C956        C  0.02836367  0.88740090  0.42629485     0.11000
H957        H  0.07346992  0.92333413  0.00462518     0.15600
H958        H  0.08340141  0.86167209  0.41049438     0.01300
H959        H  0.07135198  0.97877127  0.41388140     0.15900
H960        H  0.48276797  0.91885909  0.44959055     0.15700
C961        C  0.02510117  0.52691480  0.01651437     0.87400
C962        C  0.50248501  0.54479595  0.98905993    -0.52800
C963        C  0.48282790  0.52035680  0.47188334     0.10400
C964        C  0.48595756  0.98238891  0.48652223     0.21300
C965        C  0.49622113  0.00550886  0.04196119    -0.53500
C966        C  0.47485735  0.98343007  0.02619639     0.10500
C967        C  0.04914618  0.99673412  0.99547710    -0.53000
C968        C  0.02819616  0.97308742  0.48037247     0.11000
H969        H  0.49778539  0.57335040  0.48518425     0.15600
H970        H  0.46888338  0.96598813  0.47335398     0.01300
H971        H  0.49433256  0.00496081  0.07069543     0.15900
H972        H  0.07974117  0.99429335  0.99297507     0.15700
N973        N  0.38502275  0.88321626  0.26501113    -0.02500
C974        C  0.35890256  0.85832252  0.28020995     0.00100
C975        C  0.32354428  0.87481728  0.28733227    -0.22800
C976        C  0.32670435  0.90944521  0.27762438    -0.23000
C977        C  0.36411522  0.91561464  0.26517372     0.00000
H978        H  0.29686321  0.86287142  0.29745422     0.13800
H979        H  0.30303303  0.92841293  0.27952979     0.13800
N980        N  0.30820658  0.86527675  0.39618139    -0.02500
C981        C  0.33657310  0.84378351  0.37942944     0.00100
C982        C  0.36773792  0.86556665  0.36898613    -0.22800
C983        C  0.35350140  0.89937497  0.36479497    -0.23000
C984        C  0.31635468  0.89783314  0.37899647     0.00000
H985        H  0.39576621  0.85829032  0.35681704     0.13800
H986        H  0.36788565  0.92189901  0.35058577     0.13800
N987        N  0.24439251  0.87998914  0.10836528    -0.02500
C988        C  0.25634407  0.85337614  0.13046460     0.00100
C989        C  0.28417022  0.86710503  0.14810916    -0.22800
C990        C  0.27593164  0.90262758  0.14953559    -0.23000
C991        C  0.25113692  0.91020587  0.12561775     0.00000
H992        H  0.30158680  0.85333911  0.16586618     0.13800
H993        H  0.28528740  0.92082577  0.16778257     0.13800
N994        N  0.36579452  0.71620629  0.11738343    -0.02500
C995        C  0.33300859  0.73127512  0.13284231     0.00100
C996        C  0.34047441  0.76600350  0.14254395    -0.22800
C997        C  0.37873054  0.76784948  0.14157443    -0.23000
C998        C  0.39315709  0.73594925  0.12822092     0.00000
H999        H  0.32098960  0.78587998  0.15476901     0.13800
H1000       H  0.39391742  0.78854709  0.15247452     0.13800
O1001       O  0.29309452  0.83732273  0.45533719    -0.70800
O1002       O  0.25935242  0.84623852  0.05612060    -0.71000
O1003       O  0.22824019  0.85106591  0.49736941    -0.70900
O1004       O  0.32701925  0.83077350  0.01626176    -0.70900
O1005       O  0.34099979  0.88708640  0.01126916    -0.70900
O1006       O  0.24111940  0.90777901  0.49375349    -0.70900
O1007       O  0.27329911  0.90274410  0.05174250    -0.70800
O1008       O  0.30553003  0.89407017  0.45182622    -0.71000
V1009       V  0.27725784  0.84255072  0.00605534     1.35200
V1010       V  0.28972875  0.89697898  0.00204330     1.35200
C1011       C  0.30198493  0.86534595  0.43564878     0.78400
C1012       C  0.25864848  0.87651078  0.07067555     0.78500
C1013       C  0.21766455  0.88309647  0.49255473     0.74300
C1014       C  0.35141220  0.85466915  0.01684453     0.78300
O1015       O  0.35143942  0.72318698  0.46248086    -0.70800
O1016       O  0.34120199  0.72169079  0.06314762    -0.71000
O1017       O  0.36034961  0.77116222  0.01022200    -0.70900
O1018       O  0.33230893  0.67389118  0.01666614    -0.70900
O1019       O  0.39133260  0.65788858  0.01585333    -0.70900
O1020       O  0.41894944  0.75369511  0.00910904    -0.70900
O1021       O  0.40018314  0.70501077  0.06184450    -0.70800
O1022       O  0.41038717  0.70750445  0.46107573    -0.71000
V1023       V  0.34726142  0.72223761  0.01300190     1.35200
V1024       V  0.40395466  0.70638947  0.01171291     1.35200
C1025       C  0.38320712  0.71716547  0.44447901     0.78400
C1026       C  0.36884226  0.71278681  0.07967982     0.78500
C1027       C  0.39477245  0.77873738  0.00798246     0.78300
C1028       C  0.35718791  0.64957204  0.01939379     0.78300
N1029       N  0.39067364  0.84446908  0.01968015    -0.02500
C1030       C  0.41984722  0.86604883  0.02355100     0.00100
C1031       C  0.45395642  0.85229527  0.00771418    -0.22800
C1032       C  0.44685530  0.82004131  0.99579130    -0.23000
C1033       C  0.40854300  0.81513392  0.00464982     0.00000
H1034       H  0.48141212  0.86412694  0.00555213     0.13800
H1035       H  0.46795133  0.80084338  0.98450828     0.13800
N1036       N  0.39679752  0.74614776  0.38186994    -0.02500
C1037       C  0.38703124  0.71756384  0.40518457     0.00100
C1038       C  0.37401361  0.68945198  0.38851024    -0.22800
C1039       C  0.37389516  0.70065152  0.35394501    -0.23000
C1040       C  0.38374057  0.73665268  0.35108371     0.00000
H1041       H  0.36333688  0.66428373  0.40076392     0.13800
H1042       H  0.36196996  0.68559721  0.33460300     0.13800
N1043       N  0.11260207  0.88215813  0.21029823    -0.02500
C1044       C  0.13363205  0.86840629  0.18078490     0.00100
C1045       C  0.14835717  0.89618494  0.15795365    -0.22800
C1046       C  0.14578935  0.92603882  0.17726345    -0.23000
C1047       C  0.12634216  0.91650824  0.20979963     0.00000
H1048       H  0.16703946  0.89398995  0.13329565     0.13800
H1049       H  0.15852423  0.95163338  0.16918290     0.13800
O1050       O  0.48855267  0.89498378  0.17603486    -0.70800
O1051       O  0.00319226  0.90732455  0.27503680    -0.71000
O1052       O  0.04995654  0.90453662  0.21427894    -0.70900
O1053       O  0.44342268  0.90460999  0.23864450    -0.70900
O1054       O  0.44283057  0.84717760  0.25059602    -0.70900
O1055       O  0.05482523  0.84683505  0.22325652    -0.70900
O1056       O  0.00660865  0.84957945  0.28487852    -0.70800
O1057       O  0.49038925  0.83757663  0.18774937    -0.71000
V1058       V  0.49610964  0.90113750  0.22559070     1.35200
V1059       V  0.49803321  0.84581059  0.23558137     1.35200
C1060       C  0.48646934  0.86308422  0.16526931     0.78400
C1061       C  0.00651286  0.88035608  0.29680026     0.78500
C1062       C  0.07127049  0.87726037  0.21639529     0.78300
C1063       C  0.42491258  0.87771326  0.25093255     0.78300
O1064       O  0.06358373  0.73785234  0.36463014    -0.70800
O1065       O  0.45857944  0.76087340  0.35394139    -0.71000
O1066       O  0.02293030  0.80307695  0.34736205    -0.70900
O1067       O  0.49670981  0.70286884  0.37021244    -0.70900
O1068       O  0.49180978  0.71411802  0.42597752    -0.70900
O1069       O  0.00709370  0.81348751  0.40304830    -0.70900
O1070       O  0.44674101  0.76758419  0.41067862    -0.70800
O1071       O  0.05376027  0.75501865  0.41871306    -0.71000
V1072       V  0.01123636  0.75238729  0.35958215     1.35200
V1073       V  0.00089986  0.76295812  0.41317144     1.35200
C1074       C  0.07561433  0.73905751  0.39476079     0.78400
C1075       C  0.43439834  0.76119973  0.38172717     0.78500
C1076       C  0.01583601  0.82608231  0.37148496     0.78300
C1077       C  0.48705344  0.69270336  0.40225498     0.78300
N1078       N  0.01512231  0.86546580  0.36463722    -0.02500
C1079       C  0.01114066  0.88932537  0.39176268     0.00100
C1080       C  0.00035979  0.92318207  0.37931779    -0.22800
C1081       C  0.99915510  0.92178684  0.34441623    -0.23000
C1082       C  0.00780373  0.88699544  0.33508722     0.00000
H1083       H  0.99761007  0.94796431  0.39328343     0.13800
H1084       H  0.99315312  0.94465689  0.32726316     0.13800
N1085       N  0.11176994  0.72150975  0.40258201    -0.02500
C1086       C  0.12799484  0.68824522  0.39212748     0.00100
C1087       C  0.15493742  0.67731934  0.41335250    -0.22800
C1088       C  0.16142417  0.70601432  0.43156875    -0.23000
C1089       C  0.13346782  0.73131031  0.42742451     0.00000
H1090       H  0.17413704  0.65419819  0.41036241     0.13800
H1091       H  0.18432519  0.70818085  0.44713078     0.13800
N1092       N  0.37071939  0.62949716  0.22120408    -0.02500
C1093       C  0.35744942  0.65200838  0.19610159     0.00100
C1094       C  0.37391162  0.68526648  0.19774348    -0.22800
C1095       C  0.39267240  0.68449875  0.22639104    -0.23000
C1096       C  0.38920841  0.65038074  0.24106819     0.00000
H1097       H  0.36382648  0.71055176  0.18801967     0.13800
H1098       H  0.40537934  0.70723386  0.23666395     0.13800
O1099       O  0.34475869  0.97670070  0.26399519    -0.70800
O1100       O  0.34034759  0.57417234  0.23206869    -0.71000
O1101       O  0.33264368  0.01010477  0.20389536    -0.70900
O1102       O  0.35360974  0.53876604  0.29263774    -0.70900
O1103       O  0.41248386  0.52526854  0.27640924    -0.70900
O1104       O  0.39189091  0.51472564  0.18325422    -0.70900
O1105       O  0.40171612  0.57238529  0.22150111    -0.70800
O1106       O  0.40207989  0.96865816  0.23868319    -0.71000
V1107       V  0.34377954  0.52509868  0.24763616     1.35200
V1108       V  0.40126312  0.52101055  0.22994747     1.35200
C1109       C  0.37228458  0.95502567  0.25561306     0.78400
C1110       C  0.37076154  0.59067849  0.22383065     0.78500
C1111       C  0.35934607  0.50451810  0.17974573     0.78300
C1112       C  0.38549305  0.52940566  0.30101857     0.78300
O1113       O  0.20570667  0.47358167  0.39575281    -0.70800
O1114       O  0.30562117  0.50771827  0.39976467    -0.71000
O1115       O  0.23591060  0.53858682  0.39658161    -0.70900
O1116       O  0.27328704  0.94307725  0.40268054    -0.70900
O1117       O  0.29070285  0.94608780  0.34570533    -0.70900
O1118       O  0.24247899  0.53890999  0.33898339    -0.70900
O1119       O  0.31216323  0.51306840  0.34249968    -0.70800
O1120       O  0.22047502  0.96993998  0.33868432    -0.71000
V1121       V  0.25504548  0.49108476  0.39770885     1.35200
V1122       V  0.26569832  0.49194473  0.34248993     1.35200
C1123       C  0.19758635  0.96421675  0.36611776     0.78400
C1124       C  0.32666200  0.51474398  0.37052331     0.78500
C1125       C  0.23369596  0.55561771  0.36745036     0.78300
C1126       C  0.29099050  0.92933933  0.37563323     0.78300
N1127       N  0.36726593  0.51816936  0.36813955    -0.02500
C1128       C  0.38513411  0.49773557  0.39144363     0.00100
C1129       C  0.40970589  0.47337192  0.37321620    -0.22800
C1130       C  0.41538173  0.48605765  0.33907595    -0.23000
C1131       C  0.39041833  0.51463051  0.33666080     0.00000
H1132       H  0.42597586  0.45165694  0.38397881     0.13800
H1133       H  0.43434150  0.47450731  0.31774983     0.13800
N1134       N  0.22819985  0.59427129  0.36736039    -0.02500
C1135       C  0.23465841  0.61401965  0.33666428     0.00100
C1136       C  0.27286997  0.62317302  0.33157336    -0.22800
C1137       C  0.28219383  0.62500343  0.36513543    -0.23000
C1138       C  0.25218053  0.60968085  0.38634970     0.00000
H1139       H  0.28815159  0.63688545  0.30854910     0.13800
H1140       H  0.30566966  0.63893821  0.37317414     0.13800
O1141       O  0.10601794  0.82679511  0.00686934    -0.70800
O1142       O  0.09016485  0.72704063  0.03539716    -0.71000
O1143       O  0.09923985  0.78542477  0.07181574    -0.70900
O1144       O  0.09704011  0.76430901  0.47379585    -0.70900
O1145       O  0.15818509  0.76576319  0.46669279    -0.70900
O1146       O  0.15920887  0.77179328  0.06414380    -0.70900
O1147       O  0.15064870  0.71782004  0.02306678    -0.70800
O1148       O  0.16608353  0.81812594  0.00770476    -0.71000
V1149       V  0.09887763  0.77681343  0.02211191     1.35200
V1150       V  0.15714461  0.76860969  0.01575710     1.35200
C1151       C  0.13944845  0.83880199  0.00045057     0.78400
C1152       C  0.11791160  0.70487246  0.03139260     0.78500
C1153       C  0.12934028  0.77688778  0.08513900     0.78300
C1154       C  0.12823720  0.75821424  0.45474745     0.78300
N1155       N  0.14858465  0.87340218  0.48334456    -0.02500
C1156       C  0.12676977  0.89319228  0.46254334     0.00100
C1157       C  0.14454654  0.92509448  0.45053325    -0.22800
C1158       C  0.17813635  0.92481250  0.46272581    -0.23000
C1159       C  0.18096385  0.89283794  0.48152170     0.00000
H1160       H  0.13373060  0.94813493  0.43668500     0.13800
H1161       H  0.19881283  0.94579442  0.45802916     0.13800
O1162       O  0.50243564  0.76557929  0.09805476    -0.70800
O1163       O  0.01082054  0.66490919  0.11749283    -0.71000
O1164       O  0.45384931  0.71216344  0.10654161    -0.70900
O1165       O  0.05891536  0.72057498  0.10674784    -0.70900
O1166       O  0.05033244  0.72714304  0.16381996    -0.70900
O1167       O  0.44430986  0.72655929  0.16178776    -0.70900
O1168       O  0.99824929  0.67419741  0.17373505    -0.70800
O1169       O  0.49703233  0.77578793  0.15430116    -0.71000
V1170       V  0.50627780  0.71558314  0.10854129     1.35200
V1171       V  0.49734997  0.72492915  0.16271509     1.35200
C1172       C  0.50014794  0.78787493  0.12256944     0.78400
C1173       C  0.00608047  0.65202349  0.14931122     0.78500
C1174       C  0.43157850  0.72289770  0.13260754     0.78300
C1175       C  0.07195263  0.72780250  0.13458212     0.78300
N1176       N  0.48357185  0.85501215  0.12809903    -0.02500
C1177       C  0.48347145  0.87979614  0.10019858     0.00100
C1178       C  0.50805994  0.86920856  0.07104251    -0.22800
C1179       C  0.51986168  0.83545094  0.07837317    -0.23000
C1180       C  0.50339615  0.82647910  0.11232749     0.00000
H1181       H  0.51402180  0.88351643  0.04559542     0.13800
H1182       H  0.53563760  0.81798318  0.05946128     0.13800
N1183       N  0.12964303  0.76595950  0.12211290    -0.02500
C1184       C  0.16480590  0.75914461  0.13142263     0.00100
C1185       C  0.17091257  0.72256844  0.13622865    -0.22800
C1186       C  0.13624593  0.70752840  0.14033929    -0.23000
C1187       C  0.11183429  0.73463714  0.13315359     0.00000
H1188       H  0.19667062  0.71000064  0.14310053     0.13800
H1189       H  0.12849026  0.68036871  0.14882345     0.13800
O1190       O  0.24422531  0.64528660  0.43625208    -0.70800
O1191       O  0.24210976  0.65207924  0.03555687    -0.71000
O1192       O  0.29271102  0.63410165  0.48020596    -0.70900
O1193       O  0.19184774  0.66416911  0.99110643    -0.70900
O1194       O  0.17428778  0.60889112  0.99018729    -0.70900
O1195       O  0.27596902  0.57937432  0.49618603    -0.70900
O1196       O  0.21641420  0.59950114  0.04319678    -0.70800
O1197       O  0.23393633  0.58795447  0.44435863    -0.71000
V1198       V  0.24201204  0.64767949  0.48580069     1.35200
V1199       V  0.22526871  0.59438552  0.49321221     1.35200
C1200       C  0.24308849  0.61456886  0.42381062     0.78400
C1201       C  0.22752782  0.62723568  0.05625279     0.78500
C1202       C  0.30167833  0.60228683  0.48813183     0.78300
C1203       C  0.16594340  0.64203686  0.99132370     0.78300
N1204       N  0.33921773  0.59491048  0.49468631    -0.02500
C1205       C  0.35179434  0.56108109  0.49887030     0.00100
C1206       C  0.35473117  0.55451669  0.53482787    -0.22800
C1207       C  0.35594126  0.58754793  0.54929105    -0.23000
C1208       C  0.34754372  0.61201997  0.02290132     0.00000
H1209       H  0.36422751  0.52971783  0.54660475     0.13800
H1210       H  0.36593648  0.59374842  0.07413017     0.13800
O1211       O  0.23185542  0.96439271  0.15255811    -0.70800
O1212       O  0.24623005  0.56510715  0.14866461    -0.71000
O1213       O  0.18510027  0.52433526  0.15528311    -0.70900
O1214       O  0.29021725  0.50594834  0.14806044    -0.70900
O1215       O  0.29500664  0.49996048  0.09124498    -0.70900
O1216       O  0.18747747  0.52855503  0.09814288    -0.70900
O1217       O  0.25486470  0.56392800  0.09118226    -0.70800
O1218       O  0.23144351  0.96448035  0.09552883    -0.71000
V1219       V  0.23807376  0.51494618  0.14989679     1.35200
V1220       V  0.24168873  0.51466575  0.09488144     1.35200
C1221       C  0.23442782  0.94705135  0.12429589     0.78400
C1222       C  0.25259621  0.58198044  0.11884929     0.78500
C1223       C  0.16774974  0.53104810  0.12883985     0.78300
C1224       C  0.31016799  0.49670144  0.11982699     0.78300
N1225       N  0.34768045  0.97980122  0.12254510    -0.02500
C1226       C  0.35707177  0.94602637  0.11077386     0.00100
C1227       C  0.35598807  0.92160733  0.13947150    -0.22800
C1228       C  0.35909354  0.94106260  0.16784052    -0.23000
C1229       C  0.35640298  0.47621978  0.15581569     0.00000
H1230       H  0.36038818  0.89280067  0.13960252     0.13800
H1231       H  0.36380400  0.93043971  0.19374209     0.13800
N1232       N  0.24836702  0.62078821  0.11641998    -0.02500
C1233       C  0.23425174  0.63639665  0.14715071     0.00100
C1234       C  0.19564877  0.64182695  0.14811947    -0.22800
C1235       C  0.18833836  0.63982643  0.11375000    -0.23000
C1236       C  0.22245548  0.63112945  0.09467268     0.00000
H1237       H  0.17619496  0.65136661  0.17006605     0.13800
H1238       H  0.16189706  0.64561790  0.10337826     0.13800
O1239       O  0.15157056  0.96117492  0.24279060    -0.70800
O1240       O  0.14070074  0.55628072  0.27992181    -0.71000
O1241       O  0.15168853  0.98869904  0.30862035    -0.70900
O1242       O  0.14213151  0.52638244  0.21468003    -0.70900
O1243       O  0.08160764  0.52008470  0.22672693    -0.70900
O1244       O  0.09151877  0.97880956  0.31881900    -0.70900
O1245       O  0.08089034  0.54573628  0.29190448    -0.70800
O1246       O  0.09089281  0.95390817  0.25272028    -0.71000
V1247       V  0.14550326  0.00808641  0.26220610     1.35200
V1248       V  0.08747682  0.00023292  0.27258044     1.35200
C1249       C  0.12274949  0.94326638  0.23815402     0.78400
C1250       C  0.10776629  0.56715675  0.29242713     0.78500
C1251       C  0.12380173  0.97587637  0.32923035     0.78300
C1252       C  0.11029648  0.52597607  0.20377292     0.78300
N1253       N  0.12964006  0.95479293  0.36139955    -0.02500
C1254       C  0.10896424  0.92474348  0.37010238     0.00100
C1255       C  0.13228193  0.89448673  0.36330151    -0.22800
C1256       C  0.16840847  0.90574307  0.36172122    -0.23000
C1257       C  0.16526878  0.94235525  0.36364777     0.00000
H1258       H  0.12485234  0.86650050  0.36582989     0.13800
H1259       H  0.19378269  0.88906155  0.36147534     0.13800
O1260       O  0.42933031  0.66192937  0.28166037    -0.70800
O1261       O  0.02786377  0.62981201  0.28874347    -0.71000
O1262       O  0.48658153  0.63793316  0.23580654    -0.70900
O1263       O  0.47046887  0.65472210  0.33557863    -0.70900
O1264       O  0.43849656  0.60576288  0.34438632    -0.70900
O1265       O  0.48090767  0.58131059  0.25115965    -0.70900
O1266       O  0.00584541  0.58100414  0.31668491    -0.70800
O1267       O  0.41444330  0.60619172  0.27878564    -0.71000
V1268       V  0.47799963  0.64571968  0.28593980     1.35200
V1269       V  0.45975544  0.59393734  0.29756355     1.35200
C1270       C  0.40925263  0.63897319  0.27045632     0.78400
C1271       C  0.03211877  0.60320041  0.30959242     0.78500
C1272       C  0.48777382  0.60566346  0.22663095     0.78300
C1273       C  0.45152899  0.63294696  0.35715381     0.78300
N1274       N  0.44666375  0.63761985  0.39516745    -0.02500
C1275       C  0.42499309  0.61652689  0.42006605     0.00100
C1276       C  0.42943881  0.62737768  0.45356076    -0.22800
C1277       C  0.45763978  0.65151195  0.44969805    -0.23000
C1278       C  0.46659237  0.65922250  0.41388336     0.00000
H1279       H  0.42072539  0.61269062  0.47824746     0.13800
H1280       H  0.46913102  0.66353954  0.47125213     0.13800
N1281       N  0.09891925  0.60111444  0.30978164    -0.02500
C1282       C  0.11202179  0.63562424  0.30368633     0.00100
C1283       C  0.08668194  0.65841258  0.32315493    -0.22800
C1284       C  0.06189461  0.63743205  0.34476534    -0.23000
C1285       C  0.06438936  0.60481205  0.32907030     0.00000
H1286       H  0.08875585  0.68716901  0.32478292     0.13800
H1287       H  0.03762685  0.64783089  0.36146045     0.13800
N1288       N  0.00756176  0.61319507  0.15713835    -0.02500
C1289       C  0.01239127  0.58709274  0.13236304     0.00100
C1290       C  0.99941373  0.55453237  0.14739030    -0.22800
C1291       C  0.98980161  0.55885215  0.18254624    -0.23000
C1292       C  0.99539148  0.59442647  0.18866738     0.00000
H1293       H  0.99806729  0.52952197  0.13432571     0.13800
H1294       H  0.97984193  0.53778035  0.20186127     0.13800
N1295       N  0.12644520  0.53822043  0.13458044    -0.02500
C1296       C  0.10315744  0.53293026  0.10913312     0.00100
C1297       C  0.07433566  0.50997638  0.12283886    -0.22800
C1298       C  0.07442011  0.50688646  0.15809884    -0.23000
C1299       C  0.10476706  0.52571811  0.16549975     0.00000
H1300       H  0.05177309  0.50061127  0.10942171     0.13800
H1301       H  0.05359779  0.49282755  0.17671671     0.13800
N1302       N  0.11231015  0.66627161  0.02954704    -0.02500
C1303       C  0.07703841  0.65283474  0.03098859     0.00100
C1304       C  0.06621638  0.65917311  0.99721436    -0.22800
C1305       C  0.09947304  0.65259578  0.97554497    -0.23000
C1306       C  0.12713155  0.65499806  0.99745678     0.00000
H1307       H  0.03888409  0.65317571  0.98972260     0.13800
H1308       H  0.10180673  0.64162106  0.94953703     0.13800
C1309       C  0.18897970  0.70203151  0.30573297     0.87400
C1310       C  0.21938118  0.67597748  0.31553476    -0.52800
C1311       C  0.20726678  0.64477017  0.33173016     0.10400
C1312       C  0.16372342  0.64446541  0.34051551     0.21300
C1313       C  0.16427590  0.67837475  0.28462186    -0.53500
C1314       C  0.15109346  0.64717609  0.30355999     0.10500
C1315       C  0.16318092  0.71070461  0.33822688    -0.53000
C1316       C  0.14849949  0.68185280  0.35662595     0.11000
H1317       H  0.24894072  0.68164907  0.30753030     0.15600
H1318       H  0.15339165  0.62023224  0.35673409     0.01300
H1319       H  0.15140456  0.68871610  0.26179584     0.15900
H1320       H  0.15769745  0.73809277  0.34676824     0.15700
C1321       C  0.26698615  0.69921392  0.21377844     0.87400
C1322       C  0.28384711  0.72427485  0.18374621    -0.52800
C1323       C  0.30305730  0.70897709  0.15505742     0.10400
C1324       C  0.30023467  0.66703689  0.15838250     0.21300
C1325       C  0.23966146  0.67707566  0.19697808    -0.53500
C1326       C  0.25671916  0.65925104  0.16771253     0.10500
C1327       C  0.29690853  0.67130316  0.22217746    -0.53000
C1328       C  0.31656053  0.65565643  0.19332952     0.11000
H1329       H  0.28266407  0.75289408  0.18717625     0.15600
H1330       H  0.31427922  0.65311989  0.13478318     0.01300
H1331       H  0.21008617  0.67510542  0.20771946     0.15900
H1332       H  0.30638242  0.66897223  0.24826665     0.15700
C1333       C  0.30337671  0.78265880  0.30467479     0.87400
C1334       C  0.32830267  0.75189692  0.31762590    -0.52800
C1335       C  0.36147199  0.76202210  0.32897664     0.10400
C1336       C  0.36606916  0.80310213  0.32631159     0.21300
C1337       C  0.29748239  0.80727321  0.33829295    -0.53500
C1338       C  0.33093099  0.81738753  0.35045627     0.10500
C1339       C  0.33137524  0.80208130  0.27617266    -0.53000
C1340       C  0.36109634  0.81811956  0.28795638     0.11000
H1341       H  0.31825314  0.72457416  0.32007284     0.15600
H1342       H  0.39399614  0.80944305  0.33351246     0.01300
H1343       H  0.26976661  0.81625580  0.35041108     0.15900
H1344       H  0.32270596  0.81048355  0.25060939     0.15700
C1345       C  0.20642613  0.79711710  0.20960737     0.87400
C1346       C  0.23770744  0.81552406  0.18552472    -0.52800
C1347       C  0.22844121  0.83026375  0.15403272     0.10400
C1348       C  0.18641030  0.82374298  0.14940960     0.21300
C1349       C  0.17324031  0.82470491  0.21454355    -0.53500
C1350       C  0.16194987  0.83819881  0.18312954     0.10500
C1351       C  0.19347978  0.76963027  0.18528028    -0.53000
C1352       C  0.18238921  0.78306722  0.15432786     0.11000
H1353       H  0.26563557  0.81581483  0.19346228     0.15600
H1354       H  0.17818477  0.83454439  0.12375138     0.01300
H1355       H  0.16044865  0.83324378  0.24043341     0.15900
H1356       H  0.19308716  0.74132680  0.19084060     0.15700
C1357       C  0.26770511  0.76925496  0.28632448     0.87400
C1358       C  0.23430724  0.75193198  0.31028339    -0.52800
C1359       C  0.20852196  0.73581978  0.29165963     0.10400
C1360       C  0.21676549  0.74035778  0.25252074     0.21300
C1361       C  0.28217327  0.73914837  0.26087098    -0.53500
C1362       C  0.25546508  0.72309419  0.24443065     0.10500
C1363       C  0.24739468  0.79616700  0.26177459    -0.53000
C1364       C  0.22110830  0.78063034  0.24336783     0.11000
H1365       H  0.23478412  0.74691703  0.33860891     0.15600
H1366       H  0.19471942  0.72726418  0.24101942     0.01300
H1367       H  0.31206291  0.73237373  0.25464311     0.15900
H1368       H  0.25545850  0.82403890  0.25705251     0.15700
C1369       C  0.04508610  0.55459900  0.53935979     0.87400
C1370       C  0.05912929  0.58915623  0.52157889    -0.52800
C1371       C  0.07187130  0.61337399  0.54385357     0.10400
C1372       C  0.07400900  0.59637243  0.58247575     0.21300
C1373       C  0.08034709  0.53890245  0.55344372    -0.53500
C1374       C  0.09463294  0.55795046  0.57842474     0.10500
C1375       C  0.01737323  0.56821010  0.57169988    -0.53000
C1376       C  0.03219228  0.58848094  0.59516688     0.11000
H1377       H  0.05684822  0.59412640  0.99326650     0.15600
H1378       H  0.08660645  0.61431039  0.60006218     0.01300
H1379       H  0.08866773  0.01109110  0.54945849     0.15900
H1380       H  0.48685066  0.56201943  0.57583779     0.15700
C1381       C  0.44948862  0.53089420  0.95476111     0.87400
C1382       C  0.43192607  0.50339052  0.93396608    -0.52800
C1383       C  0.39961957  0.51570629  0.92092222     0.10400
C1384       C  0.38776326  0.55443047  0.93192733     0.21300
C1385       C  0.45597368  0.56206039  0.92820152    -0.53500
C1386       C  0.42364367  0.57739554  0.91833726     0.10500
C1387       C  0.41818154  0.54049976  0.98392671    -0.53000
C1388       C  0.38491306  0.55085614  0.97286174     0.11000
H1389       H  0.44634096  0.97844450  0.92657784     0.15600
H1390       H  0.36153852  0.56495186  0.92193800     0.01300
H1391       H  0.48307377  0.57543314  0.92353552     0.15900
H1392       H  0.42227449  0.53849502  0.51155429     0.15700
C1393       C  0.44995560  0.95545164  0.54813839     0.87400
C1394       C  0.47124599  0.93784330  0.57693806    -0.52800
C1395       C  0.45513863  0.90890336  0.59508278     0.10400
C1396       C  0.41512044  0.90220746  0.58358732     0.21300
C1397       C  0.43904298  0.92533636  0.52566973    -0.53500
C1398       C  0.42085045  0.89790681  0.54349892     0.10500
C1399       C  0.41249512  0.96742062  0.56847195    -0.53000
C1400       C  0.39283632  0.93943660  0.58643781     0.11000
H1401       H  0.50071574  0.94380088  0.57838761     0.15600
H1402       H  0.40137343  0.87839562  0.59763037     0.01300
H1403       H  0.44528730  0.92315009  0.49764001     0.15900
H1404       H  0.40357957  0.49547498  0.57057717     0.15700
C1405       C  0.04146438  0.94002803  0.95863576     0.87400
C1406       C  0.06535554  0.91537082  0.97949451    -0.52800
C1407       C  0.08482727  0.88967961  0.96012541     0.10400
C1408       C  0.07108218  0.88638749  0.92278108     0.21300
C1409       C  0.06563408  0.95106645  0.92247341    -0.53500
C1410       C  0.08114763  0.92255182  0.90325921     0.10500
C1411       C  0.01256156  0.91312356  0.94846098    -0.53000
C1412       C  0.02755433  0.88751916  0.92546818     0.11000
H1413       H  0.07510987  0.92380567  0.50487147     0.15600
H1414       H  0.08265387  0.86179554  0.90984659     0.01300
H1415       H  0.07076857  0.97887185  0.91364988     0.15900
H1416       H  0.48352479  0.91777751  0.95174178     0.15700
C1417       C  0.02563729  0.52710708  0.51684324     0.87400
C1418       C  0.50207161  0.54448435  0.48860799    -0.52800
C1419       C  0.48327917  0.52073956  0.97221692     0.10400
C1420       C  0.48676061  0.98277520  0.98619732     0.21300
C1421       C  0.49615955  0.00507387  0.54210102    -0.53500
C1422       C  0.47471366  0.98288045  0.52660711     0.10500
C1423       C  0.04972908  0.99703266  0.49581617    -0.53000
C1424       C  0.02739282  0.97286760  0.98008683     0.11000
H1425       H  0.49809140  0.57365451  0.98578890     0.15600
H1426       H  0.47030694  0.96622059  0.97255274     0.01300
H1427       H  0.49451696  0.00470776  0.57080894     0.15900
H1428       H  0.08029784  0.99458821  0.49351071     0.15700
N1429       N  0.38565830  0.88359737  0.76469574    -0.02500
C1430       C  0.35945971  0.85876277  0.77992227     0.00100
C1431       C  0.32411767  0.87528340  0.78693838    -0.22800
C1432       C  0.32726900  0.90983569  0.77690979    -0.23000
C1433       C  0.36469192  0.91595762  0.76439709     0.00000
H1434       H  0.29745267  0.86336527  0.79717675     0.13800
H1435       H  0.30358892  0.92877999  0.77871228     0.13800
N1436       N  0.30806902  0.86561416  0.89576460    -0.02500
C1437       C  0.33654811  0.84406374  0.87921339     0.00100
C1438       C  0.36777510  0.86582575  0.86897703    -0.22800
C1439       C  0.35364265  0.89966642  0.86468885    -0.23000
C1440       C  0.31640022  0.89816043  0.87860419     0.00000
H1441       H  0.39591744  0.85850918  0.85716389     0.13800
H1442       H  0.36824096  0.92225860  0.85081778     0.13800
N1443       N  0.24444431  0.87978231  0.60844265    -0.02500
C1444       C  0.25618639  0.85331057  0.63078671     0.00100
C1445       C  0.28373146  0.86724011  0.64864879    -0.22800
C1446       C  0.27535476  0.90273492  0.64989780    -0.23000
C1447       C  0.25078653  0.91010597  0.62572580     0.00000
H1448       H  0.30110809  0.85363747  0.66654615     0.13800
H1449       H  0.28466524  0.92109577  0.66804076     0.13800
N1450       N  0.36602277  0.71611070  0.61748662    -0.02500
C1451       C  0.33309907  0.73103458  0.63285439     0.00100
C1452       C  0.34033273  0.76581274  0.64258643    -0.22800
C1453       C  0.37854682  0.76782457  0.64180178    -0.23000
C1454       C  0.39318169  0.73600255  0.62844835     0.00000
H1455       H  0.32069513  0.78565012  0.65468708     0.13800
H1456       H  0.39358559  0.78864753  0.65267263     0.13800
O1457       O  0.29245863  0.83771502  0.95495402    -0.70800
O1458       O  0.26062371  0.84577196  0.55653139    -0.71000
O1459       O  0.22732200  0.85157418  0.99662565    -0.70900
O1460       O  0.32820697  0.83031465  0.51632282    -0.70900
O1461       O  0.34222424  0.88660172  0.51178144    -0.70900
O1462       O  0.24000135  0.90832063  0.99351872    -0.70900
O1463       O  0.27415898  0.90237306  0.55204659    -0.70800
O1464       O  0.30437291  0.89456792  0.95143116    -0.71000
V1465       V  0.27831394  0.84209527  0.50646148     1.35200
V1466       V  0.29084689  0.89650831  0.50241721     1.35200
C1467       C  0.30131608  0.86574783  0.93524840     0.78400
C1468       C  0.25944123  0.87614868  0.57094141     0.78500
C1469       C  0.21665441  0.88361894  0.99207722     0.74300
C1470       C  0.35266313  0.85411934  0.51707848     0.78300
O1471       O  0.35109760  0.72352709  0.96229920    -0.70800
O1472       O  0.34169600  0.72164948  0.56316708    -0.71000
O1473       O  0.36121656  0.77080334  0.51002611    -0.70900
O1474       O  0.33244187  0.67372250  0.51684405    -0.70900
O1475       O  0.39135489  0.65738212  0.51623942    -0.70900
O1476       O  0.41972757  0.75302532  0.50875447    -0.70900
O1477       O  0.40061025  0.70479741  0.56197286    -0.70800
O1478       O  0.41017957  0.70839064  0.96095908    -0.71000
V1479       V  0.34773689  0.72200289  0.51307372     1.35200
V1480       V  0.40433310  0.70582033  0.51180169     1.35200
C1481       C  0.38298050  0.71782845  0.94429923     0.78400
C1482       C  0.36925504  0.71269361  0.57976026     0.78500
C1483       C  0.39570270  0.77818796  0.50749883     0.78300
C1484       C  0.35715618  0.64924356  0.51962438     0.78300
N1485       N  0.39196182  0.84362876  0.51973242    -0.02500
C1486       C  0.42139421  0.86431712  0.52501628     0.00100
C1487       C  0.45550041  0.85045009  0.50919530    -0.22800
C1488       C  0.44804213  0.81905334  0.49572861    -0.23000
C1489       C  0.40960592  0.81452708  0.50403559     0.00000
H1490       H  0.48314235  0.86179051  0.50770997     0.13800
H1491       H  0.46899010  0.79986842  0.48416896     0.13800
N1492       N  0.39722845  0.74671856  0.88154135    -0.02500
C1493       C  0.38701072  0.71826604  0.90491908     0.00100
C1494       C  0.37438536  0.69005730  0.88808257    -0.22800
C1495       C  0.37481902  0.70113161  0.85340347    -0.23000
C1496       C  0.38451505  0.73717064  0.85060720     0.00000
H1497       H  0.36365413  0.66487835  0.90026089     0.13800
H1498       H  0.36320564  0.68601550  0.83391710     0.13800
N1499       N  0.11169570  0.88139781  0.71013756    -0.02500
C1500       C  0.13284857  0.86757793  0.68070278     0.00100
C1501       C  0.14716314  0.89534037  0.65763043    -0.22800
C1502       C  0.14447342  0.92531433  0.67678182    -0.23000
C1503       C  0.12529522  0.91584335  0.70946352     0.00000
H1504       H  0.16586022  0.89314559  0.63296583     0.13800
H1505       H  0.15716708  0.95091391  0.66854637     0.13800
O1506       O  0.48996832  0.89531570  0.67669990    -0.70800
O1507       O  0.00284770  0.90650823  0.77424407    -0.71000
O1508       O  0.04905762  0.90377564  0.71317338    -0.70900
O1509       O  0.44420624  0.90500449  0.73873387    -0.70900
O1510       O  0.44385656  0.84772958  0.75156098    -0.70900
O1511       O  0.05382922  0.84616520  0.72287533    -0.70900
O1512       O  0.00519531  0.84873702  0.78421977    -0.70800
O1513       O  0.49112316  0.83792117  0.68869590    -0.71000
V1514       V  0.49698587  0.90171841  0.72627463     1.35200
V1515       V  0.49907163  0.84641415  0.73637130     1.35200
C1516       C  0.48753013  0.86339383  0.66611683     0.78400
C1517       C  0.00560255  0.87949610  0.79608732     0.78500
C1518       C  0.07033229  0.87653824  0.71582110     0.78300
C1519       C  0.42573439  0.87814770  0.75119972     0.78300
O1520       O  0.06323248  0.73777399  0.86497964    -0.70800
O1521       O  0.45902898  0.76190492  0.85376095    -0.71000
O1522       O  0.02207650  0.80247244  0.84723078    -0.70900
O1523       O  0.49670753  0.70347132  0.86955980    -0.70900
O1524       O  0.49301342  0.71413132  0.92537789    -0.70900
O1525       O  0.00699826  0.81324982  0.90292237    -0.70900
O1526       O  0.44729960  0.76733155  0.91068942    -0.70800
O1527       O  0.05308817  0.75441958  0.91923229    -0.71000
V1528       V  0.01080001  0.75181930  0.85989644     1.35200
V1529       V  0.00029587  0.76280351  0.91341604     1.35200
C1530       C  0.07513633  0.73876818  0.89517089     0.78400
C1531       C  0.43488824  0.76160961  0.88161962     0.78500
C1532       C  0.01528945  0.82563607  0.87121199     0.78300
C1533       C  0.48757769  0.69302254  0.90161359     0.78300
N1534       N  0.01431853  0.86497026  0.86402845    -0.02500
C1535       C  0.01042126  0.88910051  0.89091188     0.00100
C1536       C  0.99928698  0.92277068  0.87830367    -0.22800
C1537       C  0.99760856  0.92098520  0.84354970    -0.23000
C1538       C  0.00658682  0.88619932  0.83441136     0.00000
H1539       H  0.99656916  0.94772876  0.89201039     0.13800
H1540       H  0.99139034  0.94368412  0.82627991     0.13800
N1541       N  0.11145957  0.72142436  0.90284388    -0.02500
C1542       C  0.12789553  0.68824328  0.89231999     0.00100
C1543       C  0.15487984  0.67741883  0.91354030    -0.22800
C1544       C  0.16122606  0.70613835  0.93176191    -0.23000
C1545       C  0.13312365  0.73131167  0.92766128     0.00000
H1546       H  0.17417419  0.65436775  0.91055813     0.13800
H1547       H  0.18415968  0.70840728  0.94725912     0.13800
N1548       N  0.37189192  0.63003061  0.72049013    -0.02500
C1549       C  0.35784470  0.65287596  0.69610045     0.00100
C1550       C  0.37363476  0.68637766  0.69835631    -0.22800
C1551       C  0.39292376  0.68524530  0.72667763    -0.23000
C1552       C  0.39028171  0.65077520  0.74058349     0.00000
H1553       H  0.36304162  0.71170448  0.68913822     0.13800
H1554       H  0.40529368  0.70792117  0.73736580     0.13800
O1555       O  0.34504987  0.97692897  0.76204676    -0.70800
O1556       O  0.34126761  0.57481054  0.73118774    -0.71000
O1557       O  0.33345604  0.01097601  0.70211615    -0.70900
O1558       O  0.35363637  0.53862430  0.79171558    -0.70900
O1559       O  0.41278146  0.52612803  0.77565492    -0.70900
O1560       O  0.39319728  0.51452162  0.68235094    -0.70900
O1561       O  0.40260354  0.57274043  0.72032905    -0.70800
O1562       O  0.40279618  0.96895768  0.73785623    -0.71000
V1563       V  0.34438177  0.52557026  0.74629853     1.35200
V1564       V  0.40202191  0.52137457  0.72913273     1.35200
C1565       C  0.37279542  0.95531842  0.75437440     0.78400
C1566       C  0.37174592  0.59119338  0.72291337     0.78500
C1567       C  0.36058863  0.50470743  0.67853371     0.78300
C1568       C  0.38564033  0.52986913  0.80020476     0.78300
O1569       O  0.20589605  0.47470345  0.89607451    -0.70800
O1570       O  0.30651176  0.50780447  0.89966740    -0.71000
O1571       O  0.23699856  0.53929602  0.89684840    -0.70900
O1572       O  0.27358633  0.94353497  0.90239455    -0.70900
O1573       O  0.29104678  0.94669467  0.84542809    -0.70900
O1574       O  0.24234005  0.53932541  0.83930454    -0.70900
O1575       O  0.31236644  0.51415035  0.84248520    -0.70800
O1576       O  0.22059409  0.97058457  0.83887300    -0.71000
V1577       V  0.25560905  0.49165729  0.89787237     1.35200
V1578       V  0.26598496  0.49257123  0.84268500     1.35200
C1579       C  0.19766011  0.96518924  0.86636880     0.78400
C1580       C  0.32726793  0.51531443  0.87035332     0.78500
C1581       C  0.23409042  0.55614740  0.86776037     0.78300
C1582       C  0.29123036  0.92982093  0.87530965     0.78300
N1583       N  0.36794748  0.51876676  0.86761359    -0.02500
C1584       C  0.38627265  0.49850677  0.89078412     0.00100
C1585       C  0.41134070  0.47470049  0.87235565    -0.22800
C1586       C  0.41657096  0.48745083  0.83826143    -0.23000
C1587       C  0.39091895  0.51546933  0.83594736     0.00000
H1588       H  0.42811056  0.45325884  0.88290582     0.13800
H1589       H  0.43574774  0.47622283  0.81688342     0.13800
N1590       N  0.22836197  0.59475070  0.86756628    -0.02500
C1591       C  0.23486412  0.61433453  0.83680361     0.00100
C1592       C  0.27305667  0.62360212  0.83180286    -0.22800
C1593       C  0.28220336  0.62570104  0.86540211    -0.23000
C1594       C  0.25214121  0.61040994  0.88657044     0.00000
H1595       H  0.28840524  0.63718973  0.80874674     0.13800
H1596       H  0.30559885  0.63973987  0.87346351     0.13800
O1597       O  0.10669745  0.82641428  0.50673764    -0.70800
O1598       O  0.09075362  0.72676216  0.53561554    -0.71000
O1599       O  0.09981991  0.78528980  0.57174710    -0.70900
O1600       O  0.09664476  0.76477737  0.97371512    -0.70900
O1601       O  0.15780968  0.76569135  0.96688674    -0.70900
O1602       O  0.15959779  0.77077343  0.56418596    -0.70900
O1603       O  0.15113607  0.71743043  0.52246298    -0.70800
O1604       O  0.16666850  0.81773123  0.50821756    -0.71000
V1605       V  0.09941276  0.77648505  0.52212400     1.35200
V1606       V  0.15763838  0.76818599  0.51568428     1.35200
C1607       C  0.14015747  0.83843893  0.50074351     0.78400
C1608       C  0.11844526  0.70455969  0.53119208     0.78500
C1609       C  0.12975409  0.77627543  0.58513306     0.78300
C1610       C  0.12788057  0.75831945  0.95486420     0.78300
N1611       N  0.14766480  0.87376849  0.98296268    -0.02500
C1612       C  0.12565428  0.89359515  0.96237094     0.00100
C1613       C  0.14315963  0.92575886  0.95072537    -0.22800
C1614       C  0.17682666  0.92550522  0.96276159    -0.23000
C1615       C  0.17991798  0.89335617  0.98119010     0.00000
H1616       H  0.13222867  0.94887175  0.93710224     0.13800
H1617       H  0.19735001  0.94661956  0.95822197     0.13800
O1618       O  0.50358515  0.76624078  0.59803251    -0.70800
O1619       O  0.01135390  0.66456603  0.61793453    -0.71000
O1620       O  0.45410538  0.71341252  0.60607850    -0.70900
O1621       O  0.05859918  0.72085102  0.60678136    -0.70900
O1622       O  0.05020570  0.72661217  0.66397065    -0.70900
O1623       O  0.44450593  0.72646527  0.66170880    -0.70900
O1624       O  0.99777624  0.67400006  0.67406847    -0.70800
O1625       O  0.49696411  0.77602263  0.65441912    -0.71000
V1626       V  0.50654234  0.71607045  0.60829636     1.35200
V1627       V  0.49753471  0.72514623  0.66255339     1.35200
C1628       C  0.50090345  0.78834332  0.62276154     0.78400
C1629       C  0.00618141  0.65178252  0.64975707     0.78500
C1630       C  0.43178104  0.72335420  0.63244952     0.78300
C1631       C  0.07177030  0.72761545  0.63467998     0.78300
N1632       N  0.48445243  0.85533333  0.62902926    -0.02500
C1633       C  0.48432169  0.88041515  0.60147081     0.00100
C1634       C  0.50922916  0.87034828  0.57229967    -0.22800
C1635       C  0.52116022  0.83651832  0.57927076    -0.23000
C1636       C  0.50448038  0.82704809  0.61303702     0.00000
H1637       H  0.51498508  0.88487357  0.54693045     0.13800
H1638       H  0.53688523  0.81929297  0.56010958     0.13800
N1639       N  0.12979569  0.76540359  0.62214761    -0.02500
C1640       C  0.16484990  0.75849443  0.63164447     0.00100
C1641       C  0.17072207  0.72190417  0.63670533    -0.22800
C1642       C  0.13599297  0.70700012  0.64069948    -0.23000
C1643       C  0.11175106  0.73419878  0.63323635     0.00000
H1644       H  0.19638199  0.70923038  0.64366917     0.13800
H1645       H  0.12815775  0.67987456  0.64927115     0.13800
O1646       O  0.24411094  0.64596407  0.93643691    -0.70800
O1647       O  0.24163295  0.65143361  0.53553064    -0.71000
O1648       O  0.29290880  0.63449302  0.98007843    -0.70900
O1649       O  0.19178013  0.66353788  0.49069528    -0.70900
O1650       O  0.17415001  0.60827870  0.48983705    -0.70900
O1651       O  0.27606994  0.57984333  0.99624777    -0.70900
O1652       O  0.21608642  0.59878898  0.54304947    -0.70800
O1653       O  0.23387538  0.58862138  0.94454827    -0.71000
V1654       V  0.24218174  0.64828245  0.98592216     1.35200
V1655       V  0.22539692  0.59500927  0.99340090     1.35200
C1656       C  0.24298126  0.61525740  0.92400560     0.78400
C1657       C  0.22709924  0.62652118  0.55619600     0.78500
C1658       C  0.30183543  0.60265289  0.98807256     0.78300
C1659       C  0.16587214  0.64145927  0.49089951     0.78300
N1660       N  0.33938722  0.59517316  0.99462954    -0.02500
C1661       C  0.35205654  0.56136279  0.99885687     0.00100
C1662       C  0.35508613  0.55489086  0.03482460    -0.22800
C1663       C  0.35637247  0.58796959  0.04917463    -0.23000
C1664       C  0.34728636  0.61170397  0.52303656     0.00000
H1665       H  0.36462390  0.53013669  0.04663319     0.13800
H1666       H  0.36543029  0.59323495  0.57432057     0.13800
O1667       O  0.23128163  0.96437249  0.65232285    -0.70800
O1668       O  0.24702163  0.56468832  0.64850747    -0.71000
O1669       O  0.18563079  0.52426296  0.65530399    -0.70900
O1670       O  0.29066583  0.50515598  0.64782846    -0.70900
O1671       O  0.29526537  0.49939882  0.59098609    -0.70900
O1672       O  0.18790987  0.52836854  0.59815634    -0.70900
O1673       O  0.25536482  0.56351747  0.59102116    -0.70800
O1674       O  0.23135555  0.96429339  0.59524349    -0.71000
V1675       V  0.23856253  0.51454915  0.64978757     1.35200
V1676       V  0.24202919  0.51429359  0.59477179     1.35200
C1677       C  0.23404657  0.94693644  0.62411443     0.78400
C1678       C  0.25313348  0.58158509  0.61867735     0.78500
C1679       C  0.16825457  0.53095269  0.62886785     0.78300
C1680       C  0.31048935  0.49595880  0.61951493     0.78300
N1681       N  0.34768073  0.97929241  0.62162961    -0.02500
C1682       C  0.35674456  0.94533605  0.61017750     0.00100
C1683       C  0.35547943  0.92126277  0.63913526    -0.22800
C1684       C  0.35943484  0.94105659  0.66710702    -0.23000
C1685       C  0.35749017  0.47601359  0.65502397     0.00000
H1686       H  0.35944003  0.89240899  0.63953487     0.13800
H1687       H  0.36436203  0.93065928  0.69300443     0.13800
N1688       N  0.24842755  0.62036023  0.61624467    -0.02500
C1689       C  0.23439105  0.63594738  0.64703312     0.00100
C1690       C  0.19569001  0.64103980  0.64825902    -0.22800
C1691       C  0.18807807  0.63873156  0.61400950    -0.23000
C1692       C  0.22215583  0.63026827  0.59469436     0.00000
H1693       H  0.17627505  0.65055163  0.67024484     0.13800
H1694       H  0.16147936  0.64431872  0.60387114     0.13800
O1695       O  0.15101602  0.96063664  0.74212418    -0.70800
O1696       O  0.14044895  0.55617428  0.77976980    -0.71000
O1697       O  0.15162995  0.98812884  0.80802882    -0.70900
O1698       O  0.14199877  0.52617245  0.71460959    -0.70900
O1699       O  0.08150649  0.51930321  0.72626870    -0.70900
O1700       O  0.09132986  0.97904193  0.81869257    -0.70900
O1701       O  0.08053752  0.54590755  0.79112827    -0.70800
O1702       O  0.09039306  0.95330393  0.75281505    -0.71000
V1703       V  0.14528194  0.00757943  0.76168820     1.35200
V1704       V  0.08722683  0.99992166  0.77217794     1.35200
C1705       C  0.12208942  0.94266184  0.73785521     0.78400
C1706       C  0.10744487  0.56725677  0.79188027     0.78500
C1707       C  0.12370101  0.97588416  0.82895963     0.78300
C1708       C  0.11031777  0.52538273  0.70349945     0.78300
N1709       N  0.12952949  0.95519496  0.86139005    -0.02500
C1710       C  0.10907125  0.92497025  0.87008541     0.00100
C1711       C  0.13277886  0.89488630  0.86385504    -0.22800
C1712       C  0.16872041  0.90651721  0.86257681    -0.23000
C1713       C  0.16526433  0.94314206  0.86415315     0.00000
H1714       H  0.12568273  0.86682255  0.86656670     0.13800
H1715       H  0.19422683  0.89006127  0.86267181     0.13800
O1716       O  0.43057105  0.66196342  0.78118198    -0.70800
O1717       O  0.02690753  0.63034625  0.78901867    -0.71000
O1718       O  0.48764521  0.63781837  0.73546603    -0.70900
O1719       O  0.47154131  0.65449830  0.83519052    -0.70900
O1720       O  0.43907189  0.60583053  0.84390828    -0.70900
O1721       O  0.48201584  0.58118074  0.75079256    -0.70900
O1722       O  0.00526673  0.58120135  0.81660245    -0.70800
O1723       O  0.41557022  0.60628772  0.77799559    -0.71000
V1724       V  0.47911903  0.64551664  0.78557930     1.35200
V1725       V  0.46061132  0.59384821  0.79716951     1.35200
C1726       C  0.41047833  0.63912287  0.76980294     0.78400
C1727       C  0.03148626  0.60345413  0.80943612     0.78500
C1728       C  0.48859330  0.60559012  0.72624128     0.78300
C1729       C  0.45224637  0.63294093  0.85670468     0.78300
N1730       N  0.44712095  0.63784126  0.89467608    -0.02500
C1731       C  0.42530389  0.61692532  0.91962773     0.00100
C1732       C  0.42935570  0.62814961  0.95305797    -0.22800
C1733       C  0.45745762  0.65237469  0.94919077    -0.23000
C1734       C  0.46677822  0.65972625  0.91335489     0.00000
H1735       H  0.42060237  0.61353994  0.97778295     0.13800
H1736       H  0.46877135  0.66457442  0.97075398     0.13800
N1737       N  0.09849346  0.60126468  0.80921382    -0.02500
C1738       C  0.11182858  0.63579472  0.80396383     0.00100
C1739       C  0.08653310  0.65827529  0.82384303    -0.22800
C1740       C  0.06154477  0.63707813  0.84491425    -0.23000
C1741       C  0.06398760  0.60479431  0.82863126     0.00000
H1742       H  0.08862139  0.68696049  0.82593961     0.13800
H1743       H  0.03723438  0.64729231  0.86170739     0.13800
N1744       N  0.00790680  0.61300598  0.65767264    -0.02500
C1745       C  0.01365936  0.58679146  0.63302441     0.00100
C1746       C  0.00133785  0.55405461  0.64810854    -0.22800
C1747       C  0.99105267  0.55847825  0.68316283    -0.23000
C1748       C  0.99559070  0.59427160  0.68916997     0.00000
H1749       H  0.00053652  0.52895729  0.63508982     0.13800
H1750       H  0.98119037  0.53735635  0.70246488     0.13800
N1751       N  0.12696409  0.53808041  0.63457756    -0.02500
C1752       C  0.10398149  0.53277793  0.60893082     0.00100
C1753       C  0.07566994  0.50901461  0.62209467    -0.22800
C1754       C  0.07565471  0.50534738  0.65734148    -0.23000
C1755       C  0.10533409  0.52483174  0.66517584     0.00000
H1756       H  0.05335820  0.49948620  0.60844217     0.13800
H1757       H  0.05504281  0.49073493  0.67568935     0.13800
N1758       N  0.11271567  0.66602069  0.52937240    -0.02500
C1759       C  0.07735990  0.65283369  0.53113423     0.00100
C1760       C  0.06625523  0.65922814  0.49745356    -0.22800
C1761       C  0.09930987  0.65253828  0.47549707    -0.23000
C1762       C  0.12717618  0.65462621  0.49722376     0.00000
H1763       H  0.03876732  0.65338932  0.49019935     0.13800
H1764       H  0.10137365  0.64174148  0.44942132     0.13800
C1765       C  0.18906357  0.70220865  0.80591157     0.87400
C1766       C  0.21945687  0.67609757  0.81549400    -0.52800
C1767       C  0.20737151  0.64492167  0.83170939     0.10400
C1768       C  0.16381166  0.64461098  0.84063903     0.21300
C1769       C  0.16412966  0.67862845  0.78488780    -0.53500
C1770       C  0.15098931  0.64735527  0.80375476     0.10500
C1771       C  0.16346307  0.71086584  0.83855539    -0.53000
C1772       C  0.14867626  0.68198503  0.85686294     0.11000
H1773       H  0.24899605  0.68173750  0.80740641     0.15600
H1774       H  0.15351788  0.62035933  0.85685266     0.01300
H1775       H  0.15110285  0.68908763  0.76218810     0.15900
H1776       H  0.15805595  0.73822781  0.84717564     0.15700
C1777       C  0.26702586  0.69890364  0.71371773     0.87400
C1778       C  0.28376261  0.72393802  0.68359298    -0.52800
C1779       C  0.30310228  0.70865846  0.65494985     0.10400
C1780       C  0.30042651  0.66672623  0.65836054     0.21300
C1781       C  0.23977515  0.67663124  0.69694277    -0.53500
C1782       C  0.25688821  0.65878808  0.66768014     0.10500
C1783       C  0.29700986  0.67104963  0.72214921    -0.53000
C1784       C  0.31688907  0.65558429  0.69330981     0.11000
H1785       H  0.28239733  0.75257986  0.68693899     0.15600
H1786       H  0.31453308  0.65281525  0.63478645     0.01300
H1787       H  0.21019253  0.67466093  0.70766535     0.15900
H1788       H  0.30649493  0.66883206  0.74823867     0.15700
C1789       C  0.30385861  0.78282798  0.80426002     0.87400
C1790       C  0.32900456  0.75216831  0.81710397    -0.52800
C1791       C  0.36209275  0.76244264  0.82852207     0.10400
C1792       C  0.36643410  0.80354411  0.82598644     0.21300
C1793       C  0.29782250  0.80738266  0.83790868    -0.53500
C1794       C  0.33117092  0.81765971  0.85013056     0.10500
C1795       C  0.33173962  0.80249909  0.77581663    -0.53000
C1796       C  0.36147801  0.81855450  0.78764830     0.11000
H1797       H  0.31915152  0.72477612  0.81945491     0.15600
H1798       H  0.39431070  0.81000566  0.83321719     0.01300
H1799       H  0.27004458  0.81620683  0.85003400     0.15900
H1800       H  0.32300456  0.81096526  0.75030843     0.15700
C1801       C  0.20632862  0.79686753  0.70967160     0.87400
C1802       C  0.23748135  0.81540834  0.68564492    -0.52800
C1803       C  0.22820811  0.83012123  0.65418150     0.10400
C1804       C  0.18623054  0.82330857  0.64945763     0.21300
C1805       C  0.17289988  0.82424492  0.71458355    -0.53500
C1806       C  0.16155472  0.83764639  0.68314630     0.10500
C1807       C  0.19368874  0.76925737  0.68532071    -0.53000
C1808       C  0.18249643  0.78257183  0.65437779     0.11000
H1809       H  0.26543410  0.81566696  0.69352098     0.15600
H1810       H  0.17801589  0.83399818  0.62375993     0.01300
H1811       H  0.15997555  0.83268441  0.74045998     0.15900
H1812       H  0.19366309  0.74095753  0.69084832     0.15700
C1813       C  0.26810618  0.76925186  0.78604896     0.87400
C1814       C  0.23475677  0.75197823  0.81018082    -0.52800
C1815       C  0.20878672  0.73588445  0.79172586     0.10400
C1816       C  0.21692143  0.74024702  0.75257593     0.21300
C1817       C  0.28243549  0.73907165  0.76062491    -0.53500
C1818       C  0.25561325  0.72293348  0.74435500     0.10500
C1819       C  0.24764664  0.79608377  0.76156346    -0.53000
C1820       C  0.22120202  0.78049651  0.74336289     0.11000
H1821       H  0.23534064  0.74704383  0.83850352     0.15600
H1822       H  0.19480492  0.72714184  0.74117740     0.01300
H1823       H  0.31230997  0.73231005  0.75429267     0.15900
H1824       H  0.25566497  0.82396242  0.75677799     0.15700
C1825       C  0.54501664  0.05473140  0.03932729     0.87400
C1826       C  0.55902419  0.08930038  0.02154198    -0.52800
C1827       C  0.57175219  0.11353547  0.04381016     0.10400
C1828       C  0.57391498  0.09654183  0.08242813     0.21300
C1829       C  0.58030302  0.03908433  0.05338927    -0.53500
C1830       C  0.59456982  0.05813249  0.07836819     0.10500
C1831       C  0.51729670  0.06832879  0.07166870    -0.53000
C1832       C  0.53210668  0.08862985  0.09512388     0.11000
H1833       H  0.55674372  0.09411978  0.49354554     0.15600
H1834       H  0.58650321  0.11449219  0.10000706     0.01300
H1835       H  0.58866478  0.51089525  0.04951532     0.15900
H1836       H  0.98710762  0.06173364  0.07625580     0.15700
C1837       C  0.94960167  0.03087443  0.45470908     0.87400
C1838       C  0.93205548  0.00338483  0.43391390    -0.52800
C1839       C  0.89970475  0.01565568  0.42093133     0.10400
C1840       C  0.88776366  0.05434311  0.43203363     0.21300
C1841       C  0.95596038  0.06210231  0.42820633    -0.53500
C1842       C  0.92356655  0.07741207  0.41846834     0.10500
C1843       C  0.91830944  0.04038628  0.48395326    -0.53000
C1844       C  0.88498265  0.05071050  0.47295995     0.11000
H1845       H  0.94617137  0.47841818  0.42667018     0.15600
H1846       H  0.86150309  0.06482805  0.42208985     0.01300
H1847       H  0.98302842  0.07552446  0.42350306     0.15900
H1848       H  0.92210693  0.03856073  0.01191539     0.15700
C1849       C  0.94957188  0.45569339  0.04768478     0.87400
C1850       C  0.97131840  0.43767859  0.07595881    -0.52800
C1851       C  0.95526088  0.40881203  0.09426869     0.10400
C1852       C  0.91506139  0.40228275  0.08318104     0.21300
C1853       C  0.93795901  0.42595919  0.02512505    -0.53500
C1854       C  0.92023047  0.39830928  0.04302727     0.10500
C1855       C  0.91244186  0.46762767  0.06863839    -0.53000
C1856       C  0.89288052  0.43952988  0.08652174     0.11000
H1857       H  0.00087320  0.44354879  0.07710652     0.15600
H1858       H  0.90139781  0.37842050  0.09720265     0.01300
H1859       H  0.94282613  0.42444179  0.99691165     0.15900
H1860       H  0.90354851  0.99526567  0.07007845     0.15700
C1861       C  0.54147258  0.43985053  0.45880713     0.87400
C1862       C  0.56546620  0.41530046  0.47965074    -0.52800
C1863       C  0.58492324  0.38958230  0.46028848     0.10400
C1864       C  0.57114278  0.38622614  0.42296277     0.21300
C1865       C  0.56555848  0.45088778  0.42260424    -0.53500
C1866       C  0.58110591  0.42239219  0.40340192     0.10500
C1867       C  0.51262225  0.41279493  0.44878699    -0.53000
C1868       C  0.52761352  0.38726095  0.42573085     0.11000
H1869       H  0.57450101  0.42371071  0.00479538     0.15600
H1870       H  0.58275091  0.36163778  0.41003492     0.01300
H1871       H  0.57061085  0.47869478  0.41374016     0.15900
H1872       H  0.98323050  0.41836811  0.45091633     0.15700
C1873       C  0.52563893  0.02718683  0.01680836     0.87400
C1874       C  0.00192868  0.04445364  0.98910700    -0.52800
C1875       C  0.98350191  0.02071714  0.47200862     0.10400
C1876       C  0.98655628  0.48278664  0.48633129     0.21300
C1877       C  0.99571372  0.50533994  0.04177330    -0.53500
C1878       C  0.97435175  0.48312402  0.02619219     0.10500
C1879       C  0.54963771  0.49701244  0.99567452    -0.53000
C1880       C  0.52735406  0.47276356  0.48011875     0.11000
H1881       H  0.99819199  0.07365694  0.48560317     0.15600
H1882       H  0.96990105  0.46632757  0.47280793     0.01300
H1883       H  0.99391790  0.50496175  0.07049895     0.15900
H1884       H  0.58021178  0.49454511  0.99328450     0.15700
N1885       N  0.88541317  0.38360980  0.26468931    -0.02500
C1886       C  0.85926299  0.35880181  0.28007083     0.00100
C1887       C  0.82394909  0.37534705  0.28721762    -0.22800
C1888       C  0.82709427  0.40990334  0.27719021    -0.23000
C1889       C  0.86448664  0.41600006  0.26454255     0.00000
H1890       H  0.79729390  0.36344435  0.29753873     0.13800
H1891       H  0.80342946  0.42886962  0.27907090     0.13800
N1892       N  0.80788666  0.36549440  0.39602298    -0.02500
C1893       C  0.83633997  0.34392850  0.37945594     0.00100
C1894       C  0.86761018  0.36565720  0.36932310    -0.22800
C1895       C  0.85351925  0.39951579  0.36501962    -0.23000
C1896       C  0.81625284  0.39803912  0.37886223     0.00000
H1897       H  0.89576867  0.35831412  0.35758349     0.13800
H1898       H  0.86817052  0.42210645  0.35118764     0.13800
N1899       N  0.74431163  0.37977689  0.10841851    -0.02500
C1900       C  0.75610952  0.35323425  0.13064837     0.00100
C1901       C  0.78385044  0.36704206  0.14834965    -0.22800
C1902       C  0.77552980  0.40254944  0.14974032    -0.23000
C1903       C  0.75079331  0.41002371  0.12574247     0.00000
H1904       H  0.80131260  0.35333336  0.16610839     0.13800
H1905       H  0.78494551  0.42083687  0.16789114     0.13800
N1906       N  0.86602439  0.21627277  0.11747085    -0.02500
C1907       C  0.83314898  0.23119178  0.13294582     0.00100
C1908       C  0.84049799  0.26587480  0.14287644    -0.22800
C1909       C  0.87872480  0.26778637  0.14203939    -0.23000
C1910       C  0.89326157  0.23601634  0.12848946     0.00000
H1911       H  0.82094835  0.28568419  0.15514268     0.13800
H1912       H  0.89383322  0.28847837  0.15302909     0.13800
O1913       O  0.79243511  0.33760345  0.45524496    -0.70800
O1914       O  0.76024338  0.34586616  0.05643393    -0.71000
O1915       O  0.72734397  0.35150546  0.49688599    -0.70900
O1916       O  0.82783638  0.33044053  0.01624052    -0.70900
O1917       O  0.84181638  0.38674247  0.01152124    -0.70900
O1918       O  0.74003617  0.40824876  0.49372525    -0.70900
O1919       O  0.77388729  0.40244304  0.05198943    -0.70800
O1920       O  0.80437288  0.39445109  0.45167523    -0.71000
V1921       V  0.77792904  0.34219712  0.00637835     1.35200
V1922       V  0.79042378  0.39662030  0.00231882     1.35200
C1923       C  0.80124731  0.36563213  0.43551297     0.78400
C1924       C  0.75916877  0.37621164  0.07088016     0.78500
C1925       C  0.71669870  0.38354348  0.49226934     0.74300
C1926       C  0.85228699  0.35428267  0.01685104     0.78300
O1927       O  0.85099634  0.22372763  0.46266851    -0.70800
O1928       O  0.84169016  0.22198607  0.06314023    -0.71000
O1929       O  0.86112812  0.27101305  0.00983775    -0.70900
O1930       O  0.83247256  0.17393695  0.01692679    -0.70900
O1931       O  0.89141210  0.15764324  0.01622975    -0.70900
O1932       O  0.91966754  0.25335641  0.00871070    -0.70900
O1933       O  0.90059246  0.20508781  0.06194262    -0.70800
O1934       O  0.90996754  0.20815742  0.46124997    -0.71000
V1935       V  0.84772763  0.22220855  0.01303206     1.35200
V1936       V  0.90434624  0.20609824  0.01178667     1.35200
C1937       C  0.88281322  0.21785691  0.44462502     0.78400
C1938       C  0.86924099  0.21297820  0.07973134     0.78500
C1939       C  0.89558960  0.27846288  0.00733040     0.78300
C1940       C  0.85721244  0.14948409  0.01966331     0.78300
N1941       N  0.89161632  0.34390007  0.01940044    -0.02500
C1942       C  0.92094001  0.36481602  0.02440955     0.00100
C1943       C  0.95506710  0.35112017  0.00848305    -0.22800
C1944       C  0.94773786  0.31956370  0.99521990    -0.23000
C1945       C  0.90934895  0.31484065  0.00371877     0.00000
H1946       H  0.98262997  0.36263089  0.00690685     0.13800
H1947       H  0.96874955  0.30043170  0.98367251     0.13800
N1948       N  0.89686422  0.24673664  0.38180444    -0.02500
C1949       C  0.88674433  0.21829178  0.40523578     0.00100
C1950       C  0.87403776  0.19007344  0.38847337    -0.22800
C1951       C  0.87432406  0.20112031  0.35380330    -0.23000
C1952       C  0.88408558  0.23714284  0.35091734     0.00000
H1953       H  0.86335119  0.16489670  0.40070683     0.13800
H1954       H  0.86266532  0.18596970  0.33437441     0.13800
N1955       N  0.61176900  0.38149400  0.21025157    -0.02500
C1956       C  0.63290945  0.36770912  0.18079240     0.00100
C1957       C  0.64735897  0.39548901  0.15781731    -0.22800
C1958       C  0.64468982  0.42541519  0.17703170    -0.23000
C1959       C  0.62540328  0.41591879  0.20965715     0.00000
H1960       H  0.66607796  0.39330679  0.13316164     0.13800
H1961       H  0.65742223  0.45101230  0.16886476     0.13800
O1962       O  0.98975685  0.39520734  0.17623957    -0.70800
O1963       O  0.50308172  0.40650966  0.27450112    -0.71000
O1964       O  0.54912223  0.40383935  0.21329412    -0.70900
O1965       O  0.94384622  0.40489891  0.23824601    -0.70900
O1966       O  0.94349977  0.34766074  0.25126110    -0.70900
O1967       O  0.55392860  0.34625072  0.22313638    -0.70900
O1968       O  0.50519937  0.34872525  0.28444180    -0.70800
O1969       O  0.99071883  0.33782319  0.18828410    -0.71000
V1970       V  0.99664236  0.40159548  0.22586351     1.35200
V1971       V  0.99869323  0.34629845  0.23599213     1.35200
C1972       C  0.98727541  0.36329433  0.16565127     0.78400
C1973       C  0.50573013  0.37946241  0.29633011     0.78500
C1974       C  0.57041207  0.37662043  0.21598497     0.78300
C1975       C  0.92540434  0.37809099  0.25091009     0.78300
O1976       O  0.56347275  0.23766169  0.36508894    -0.70800
O1977       O  0.95860546  0.26187329  0.35386947    -0.71000
O1978       O  0.52227432  0.30234284  0.34736972    -0.70900
O1979       O  0.99639068  0.20352112  0.36972965    -0.70900
O1980       O  0.99264540  0.21432530  0.42551974    -0.70900
O1981       O  0.50722625  0.31306376  0.40307736    -0.70900
O1982       O  0.94696374  0.26752288  0.41077412    -0.70800
O1983       O  0.55330632  0.25422839  0.41936670    -0.71000
V1984       V  0.51103940  0.25167423  0.36001043     1.35200
V1985       V  0.50051539  0.26263374  0.41353615     1.35200
C1986       C  0.57536295  0.23860841  0.39528737     0.78400
C1987       C  0.93450920  0.26167834  0.38175972     0.78500
C1988       C  0.51547952  0.32547877  0.37137735     0.78300
C1989       C  0.98726676  0.19313792  0.40179885     0.78300
N1990       N  0.51442962  0.36481489  0.36425572    -0.02500
C1991       C  0.51038787  0.38884936  0.39122288     0.00100
C1992       C  0.49907644  0.42249620  0.37871810    -0.22800
C1993       C  0.49747236  0.42080422  0.34393351    -0.23000
C1994       C  0.50664394  0.38608626  0.33468436     0.00000
H1995       H  0.49625367  0.44739705  0.39250941     0.13800
H1996       H  0.49116500  0.44352244  0.32671757     0.13800
N1997       N  0.61166871  0.22122122  0.40294627    -0.02500
C1998       C  0.62807113  0.18804314  0.39237079     0.00100
C1999       C  0.65497326  0.17709852  0.41362903    -0.22800
C2000       C  0.66135589  0.20577044  0.43190361    -0.23000
C2001       C  0.63331111  0.23101092  0.42781598     0.00000
H2002       H  0.67422418  0.15402364  0.41062451     0.13800
H2003       H  0.68430199  0.20797841  0.44739345     0.13800
N2004       N  0.87188565  0.13001123  0.22052966    -0.02500
C2005       C  0.85791719  0.15284995  0.19608484     0.00100
C2006       C  0.87375243  0.18632682  0.19833743    -0.22800
C2007       C  0.89293585  0.18520984  0.22672748    -0.23000
C2008       C  0.89019802  0.15076137  0.24067512     0.00000
H2009       H  0.86318148  0.21165300  0.18910718     0.13800
H2010       H  0.90527221  0.20788904  0.23743911     0.13800
O2011       O  0.84489577  0.47700208  0.26223947    -0.70800
O2012       O  0.84134523  0.07476007  0.23120062    -0.71000
O2013       O  0.83333862  0.51091645  0.20226615    -0.70900
O2014       O  0.85376697  0.03846427  0.29164931    -0.70900
O2015       O  0.91291619  0.02602116  0.27558186    -0.70900
O2016       O  0.89331157  0.01456984  0.18222517    -0.70900
O2017       O  0.90268007  0.07274463  0.22031384    -0.70800
O2018       O  0.90262497  0.46897775  0.23801996    -0.71000
V2019       V  0.84450600  0.02550403  0.24620826     1.35200
V2020       V  0.90214643  0.02135484  0.22903587     1.35200
C2021       C  0.87261217  0.45536231  0.25453677     0.78400
C2022       C  0.87180021  0.09117191  0.22292378     0.78500
C2023       C  0.86069249  0.00480012  0.17836966     0.78300
C2024       C  0.88577228  0.02972345  0.30013907     0.78300
O2025       O  0.70597463  0.97483091  0.39593045    -0.70800
O2026       O  0.80666480  0.00768583  0.39963012    -0.71000
O2027       O  0.73722817  0.03935253  0.39683639    -0.70900
O2028       O  0.77356794  0.44355307  0.40260283    -0.70900
O2029       O  0.79085784  0.44652319  0.34561130    -0.70900
O2030       O  0.74239247  0.03942892  0.33929952    -0.70900
O2031       O  0.81244409  0.01436005  0.34247858    -0.70800
O2032       O  0.72044194  0.47051004  0.33900660    -0.71000
V2033       V  0.75572290  0.99167300  0.39778076     1.35200
V2034       V  0.76610861  0.99270877  0.34259890     1.35200
C2035       C  0.69754535  0.46509006  0.36651893     0.78400
C2036       C  0.82739712  0.01532442  0.37033559     0.78500
C2037       C  0.73425181  0.05623432  0.36777446     0.78300
C2038       C  0.79110988  0.42973176  0.37552939     0.78300
N2039       N  0.86809017  0.01869848  0.36757278    -0.02500
C2040       C  0.88639838  0.99845483  0.39076648     0.00100
C2041       C  0.91147245  0.97463618  0.37235606    -0.22800
C2042       C  0.91671665  0.98735671  0.33824891    -0.23000
C2043       C  0.89105389  0.01535956  0.33590205     0.00000
H2044       H  0.92820558  0.95318134  0.38292302     0.13800
H2045       H  0.93588695  0.97610375  0.31688501     0.13800
N2046       N  0.72855285  0.09483878  0.36760959    -0.02500
C2047       C  0.73516731  0.11444398  0.33686479     0.00100
C2048       C  0.77331474  0.12385576  0.33205804    -0.22800
C2049       C  0.78229872  0.12588592  0.36571584    -0.23000
C2050       C  0.75221375  0.11048397  0.38674866     0.00000
H2051       H  0.78874004  0.13751103  0.30908225     0.13800
H2052       H  0.80561863  0.13993345  0.37390885     0.13800
O2053       O  0.60632321  0.32653629  0.00673781    -0.70800
O2054       O  0.59059482  0.22690292  0.03575742    -0.71000
O2055       O  0.59971411  0.28549093  0.07178024    -0.70900
O2056       O  0.59687126  0.26469809  0.47375745    -0.70900
O2057       O  0.65804994  0.26523930  0.46712231    -0.70900
O2058       O  0.65945414  0.27081680  0.06409130    -0.70900
O2059       O  0.65094210  0.21764107  0.02222673    -0.70800
O2060       O  0.66629585  0.31795267  0.00827484    -0.71000
V2061       V  0.59914005  0.27662407  0.02219501     1.35200
V2062       V  0.65736590  0.26839962  0.01558869     1.35200
C2063       C  0.63976164  0.33860323  0.00076144     0.78400
C2064       C  0.61829808  0.20473294  0.03114993     0.78500
C2065       C  0.62966753  0.27638471  0.08509762     0.78300
C2066       C  0.62812402  0.25802130  0.45502216     0.78300
N2067       N  0.64776723  0.37364824  0.48305585    -0.02500
C2068       C  0.62574377  0.39348556  0.46249053     0.00100
C2069       C  0.64322643  0.42565565  0.45084481    -0.22800
C2070       C  0.67690101  0.42540517  0.46287424    -0.23000
C2071       C  0.68000074  0.39325383  0.48130101     0.00000
H2072       H  0.63225331  0.44875891  0.43724013     0.13800
H2073       H  0.69740892  0.44653372  0.45836069     0.13800
O2074       O  0.00359765  0.26595532  0.09786908    -0.70800
O2075       O  0.51128497  0.16470455  0.11801233    -0.71000
O2076       O  0.95410560  0.21317920  0.10611831    -0.70900
O2077       O  0.55849438  0.22101346  0.10681832    -0.70900
O2078       O  0.55023152  0.22667641  0.16402061    -0.70900
O2079       O  0.94454773  0.22631128  0.16172740    -0.70900
O2080       O  0.49779388  0.17407167  0.17416756    -0.70800
O2081       O  0.99688870  0.27595335  0.15420804    -0.71000
V2082       V  0.00655694  0.21582445  0.10831323     1.35200
V2083       V  0.99755813  0.22508454  0.16253387     1.35200
C2084       C  0.00081852  0.28816201  0.12250789     0.78400
C2085       C  0.50617304  0.15188245  0.14982221     0.78500
C2086       C  0.93181130  0.22320563  0.13247866     0.78300
C2087       C  0.57173587  0.22771885  0.13469598     0.78300
N2088       N  0.98433646  0.35523328  0.12851420    -0.02500
C2089       C  0.98433459  0.38026975  0.10086760     0.00100
C2090       C  0.00920067  0.37003460  0.07173875    -0.22800
C2091       C  0.02098303  0.33618205  0.07880724    -0.23000
C2092       C  0.00428460  0.32684883  0.11260220     0.00000
H2093       H  0.01504142  0.38446845  0.04633620     0.13800
H2094       H  0.03670203  0.31887363  0.05971868     0.13800
N2095       N  0.62976364  0.26548963  0.12209982    -0.02500
C2096       C  0.66482688  0.25857976  0.13157515     0.00100
C2097       C  0.67070101  0.22199109  0.13663004    -0.22800
C2098       C  0.63597105  0.20708825  0.14065752    -0.23000
C2099       C  0.61172609  0.23428274  0.13318866     0.00000
H2100       H  0.69636818  0.20932110  0.14359189     0.13800
H2101       H  0.62814395  0.17996659  0.14926372     0.13800
O2102       O  0.74406734  0.14585455  0.43672970    -0.70800
O2103       O  0.74159895  0.15170053  0.03559519    -0.71000
O2104       O  0.79282743  0.13423119  0.48034898    -0.70900
O2105       O  0.69174610  0.16372749  0.99073449    -0.70900
O2106       O  0.67414390  0.10844225  0.99003519    -0.70900
O2107       O  0.77601670  0.07955064  0.49639540    -0.70900
O2108       O  0.71618624  0.09899595  0.04314529    -0.70800
O2109       O  0.73383608  0.08849910  0.44466440    -0.71000
V2110       V  0.74211729  0.14802510  0.48622113     1.35200
V2111       V  0.72532143  0.09474893  0.49355134     1.35200
C2112       C  0.74295664  0.11519392  0.42420149     0.78400
C2113       C  0.72715081  0.12675704  0.05626787     0.78500
C2114       C  0.80177652  0.10238416  0.48827275     0.78300
C2115       C  0.66584879  0.14161838  0.99101009     0.78300
N2116       N  0.83934623  0.09494298  0.49481773    -0.02500
C2117       C  0.85212520  0.06115733  0.49900521     0.00100
C2118       C  0.85523888  0.05469429  0.53495300    -0.22800
C2119       C  0.85643098  0.08777440  0.54932136    -0.23000
C2120       C  0.84733897  0.11195699  0.02310683     0.00000
H2121       H  0.86488414  0.02996457  0.54672737     0.13800
H2122       H  0.86535816  0.09357763  0.07446394     0.13800
O2123       O  0.73143357  0.46428095  0.15246583    -0.70800
O2124       O  0.74708690  0.06473202  0.14845529    -0.71000
O2125       O  0.68562599  0.02442311  0.15517770    -0.70900
O2126       O  0.79063451  0.00512588  0.14773017    -0.70900
O2127       O  0.79527228  0.99960075  0.09085109    -0.70900
O2128       O  0.68787636  0.02840760  0.09803209    -0.70900
O2129       O  0.75527142  0.06365229  0.09096550    -0.70800
O2130       O  0.73126917  0.46422251  0.09541300    -0.71000
V2131       V  0.73853571  0.01461659  0.14967701     1.35200
V2132       V  0.74201778  0.01440350  0.09465419     1.35200
C2133       C  0.73407852  0.44685974  0.12425225     0.78400
C2134       C  0.75312735  0.08167333  0.11864815     0.78500
C2135       C  0.66823568  0.03105282  0.12874241     0.78300
C2136       C  0.81048678  0.99606546  0.11937865     0.78300
N2137       N  0.84766054  0.47916172  0.12184224    -0.02500
C2138       C  0.85684619  0.44524754  0.11035622     0.00100
C2139       C  0.85575530  0.42112784  0.13927068    -0.22800
C2140       C  0.85955986  0.44092101  0.16727934    -0.23000
C2141       C  0.85757149  0.97613684  0.15480887     0.00000
H2142       H  0.85994200  0.39229822  0.13961869     0.13800
H2143       H  0.86459131  0.43052404  0.19314896     0.13800
N2144       N  0.74847308  0.12045776  0.11629292    -0.02500
C2145       C  0.73444767  0.13599588  0.14710696     0.00100
C2146       C  0.69575106  0.14114964  0.14832575    -0.22800
C2147       C  0.68816232  0.13894472  0.11406283    -0.23000
C2148       C  0.72223679  0.13048838  0.09475098     0.00000
H2149       H  0.67633217  0.15066935  0.17030700     0.13800
H2150       H  0.66157849  0.14457899  0.10391168     0.13800
O2151       O  0.65100816  0.46067394  0.24242405    -0.70800
O2152       O  0.64059660  0.05606541  0.27965871    -0.71000
O2153       O  0.65150893  0.48824987  0.30828710    -0.70900
O2154       O  0.64201936  0.02619114  0.21444662    -0.70900
O2155       O  0.58154349  0.01920557  0.22610635    -0.70900
O2156       O  0.59123580  0.47899539  0.31883602    -0.70900
O2157       O  0.58066226  0.04588204  0.29090067    -0.70800
O2158       O  0.59036911  0.45337434  0.25291745    -0.71000
V2159       V  0.64520865  0.50764371  0.26190209     1.35200
V2160       V  0.58715655  0.49995953  0.27234247     1.35200
C2161       C  0.62210308  0.44271695  0.23805981     0.78400
C2162       C  0.60760006  0.06716588  0.29176677     0.78500
C2163       C  0.62358966  0.47587882  0.32914750     0.78300
C2164       C  0.61033930  0.02535076  0.20334558     0.78300
N2165       N  0.62941934  0.45510271  0.36153608    -0.02500
C2166       C  0.60896883  0.42486274  0.37018988     0.00100
C2167       C  0.63268560  0.39479265  0.36392364    -0.22800
C2168       C  0.66861897  0.40642587  0.36269846    -0.23000
C2169       C  0.66515154  0.44304798  0.36431033     0.00000
H2170       H  0.62558791  0.36672637  0.36658233     0.13800
H2171       H  0.69412989  0.38997342  0.36277687     0.13800
O2172       O  0.93028186  0.16197668  0.28142547    -0.70800
O2173       O  0.52721146  0.13018522  0.28920673    -0.71000
O2174       O  0.98740162  0.13781687  0.23572106    -0.70900
O2175       O  0.97122558  0.15456601  0.33543012    -0.70900
O2176       O  0.93875399  0.10590326  0.34417454    -0.70900
O2177       O  0.98176418  0.08118932  0.25109218    -0.70900
O2178       O  0.50548319  0.08099659  0.31663737    -0.70800
O2179       O  0.91529480  0.10629888  0.27823332    -0.71000
V2180       V  0.97882601  0.14554708  0.28583583     1.35200
V2181       V  0.96031786  0.09388238  0.29745045     1.35200
C2182       C  0.91023209  0.13913004  0.27000481     0.78400
C2183       C  0.53171649  0.10324254  0.30958033     0.78500
C2184       C  0.98840875  0.10557511  0.22652467     0.78300
C2185       C  0.95193488  0.13302221  0.35695547     0.78300
N2186       N  0.94685844  0.13792621  0.39492572    -0.02500
C2187       C  0.92516316  0.11693454  0.41989263     0.00100
C2188       C  0.92934233  0.12808894  0.45332681    -0.22800
C2189       C  0.95741950  0.15235239  0.44941084    -0.23000
C2190       C  0.96657580  0.15979106  0.41357182     0.00000
H2191       H  0.92067318  0.11344154  0.47804850     0.13800
H2192       H  0.96879903  0.16454064  0.47094337     0.13800
N2193       N  0.59868698  0.10106357  0.30931152    -0.02500
C2194       C  0.61191497  0.13563486  0.30415700     0.00100
C2195       C  0.58663307  0.15797425  0.32422923    -0.22800
C2196       C  0.56173107  0.13665131  0.34525888    -0.23000
C2197       C  0.56420515  0.10446346  0.32879994     0.00000
H2198       H  0.58863897  0.18664978  0.32641455     0.13800
H2199       H  0.53741853  0.14676527  0.36212558     0.13800
N2200       N  0.50795263  0.11309469  0.15768336    -0.02500
C2201       C  0.51361918  0.08691442  0.13299218     0.00100
C2202       C  0.50139964  0.05414831  0.14807352    -0.22800
C2203       C  0.49127665  0.05851380  0.18315553    -0.23000
C2204       C  0.49580093  0.09430335  0.18919051     0.00000
H2205       H  0.50058547  0.02905981  0.13502993     0.13800
H2206       H  0.48152576  0.03735098  0.20246236     0.13800
N2207       N  0.62694434  0.03817427  0.13446990    -0.02500
C2208       C  0.60393880  0.03292017  0.10883537     0.00100
C2209       C  0.57568179  0.00907355  0.12194896    -0.22800
C2210       C  0.57571932  0.00528911  0.15717768    -0.23000
C2211       C  0.60535579  0.02481639  0.16503571     0.00000
H2212       H  0.55336677  0.99955568  0.10829287     0.13800
H2213       H  0.55515028  0.99060357  0.17550305     0.13800
N2214       N  0.61259635  0.16618884  0.02936800    -0.02500
C2215       C  0.57725121  0.15299070  0.03107646     0.00100
C2216       C  0.56622426  0.15934095  0.99736305    -0.22800
C2217       C  0.59931652  0.15257116  0.97549475    -0.23000
C2218       C  0.62713361  0.15474337  0.99726299     0.00000
H2219       H  0.53875868  0.15349401  0.99006455     0.13800
H2220       H  0.60142633  0.14166146  0.94946559     0.13800
C2221       C  0.68908838  0.20216026  0.30586574     0.87400
C2222       C  0.71957502  0.17606417  0.31528893    -0.52800
C2223       C  0.70758854  0.14489522  0.33158552     0.10400
C2224       C  0.66404306  0.14451735  0.34062897     0.21300
C2225       C  0.66408551  0.17858224  0.28492202    -0.53500
C2226       C  0.65106702  0.14727324  0.30380400     0.10500
C2227       C  0.66360250  0.21075748  0.33860464    -0.53000
C2228       C  0.64891325  0.18185117  0.35692034     0.11000
H2229       H  0.74908687  0.18173815  0.30711243     0.15600
H2230       H  0.65382942  0.12024245  0.35685336     0.01300
H2231       H  0.65099171  0.18903930  0.26226343     0.15900
H2232       H  0.65815366  0.23810466  0.34724990     0.15700
C2233       C  0.76706165  0.19896812  0.21373614     0.87400
C2234       C  0.78373835  0.22402489  0.18360751    -0.52800
C2235       C  0.80312745  0.20877308  0.15497481     0.10400
C2236       C  0.80048456  0.16682808  0.15837238     0.21300
C2237       C  0.73983719  0.17666434  0.19699059    -0.53500
C2238       C  0.75695170  0.15884942  0.16771960     0.10500
C2239       C  0.79709685  0.17115661  0.22215526    -0.53000
C2240       C  0.81695855  0.15567665  0.19331178     0.11000
H2241       H  0.78227204  0.25266693  0.18693202     0.15600
H2242       H  0.81458813  0.15293083  0.13478570     0.01300
H2243       H  0.71026420  0.17465193  0.20774310     0.15900
H2244       H  0.80658767  0.16893932  0.24824197     0.15700
C2245       C  0.80368508  0.28286002  0.30433670     0.87400
C2246       C  0.82881100  0.25218195  0.31716800    -0.52800
C2247       C  0.86187039  0.26242704  0.32864761     0.10400
C2248       C  0.86622988  0.30353529  0.32612150     0.21300
C2249       C  0.79762228  0.30736778  0.33802347    -0.53500
C2250       C  0.83096296  0.31762750  0.35027604     0.10500
C2251       C  0.83156538  0.30255703  0.27592370    -0.53000
C2252       C  0.86129001  0.31858872  0.28777907     0.11000
H2253       H  0.81892388  0.22480365  0.31952056     0.15600
H2254       H  0.89410982  0.30998218  0.33335083     0.01300
H2255       H  0.76983668  0.31615757  0.35016149     0.15900
H2256       H  0.82284265  0.31105180  0.25041555     0.15700
C2257       C  0.70627994  0.29689779  0.20965945     0.87400
C2258       C  0.73741619  0.31548918  0.18564373    -0.52800
C2259       C  0.72812785  0.33016198  0.15416612     0.10400
C2260       C  0.68614776  0.32336009  0.14947114     0.21300
C2261       C  0.67284917  0.32425361  0.21460338    -0.53500
C2262       C  0.66149784  0.33768097  0.18318301     0.10500
C2263       C  0.69364993  0.26929418  0.18529113    -0.53000
C2264       C  0.68243710  0.28262836  0.15436019     0.11000
H2265       H  0.76535505  0.31581116  0.19353960     0.15600
H2266       H  0.67790854  0.33407382  0.12378921     0.01300
H2267       H  0.65995946  0.33269853  0.24048943     0.15900
H2268       H  0.69365857  0.24098931  0.19079777     0.15700
C2269       C  0.76798137  0.26929296  0.28607969     0.87400
C2270       C  0.73463214  0.25199884  0.31017535    -0.52800
C2271       C  0.70869950  0.23588904  0.29169438     0.10400
C2272       C  0.71687491  0.24025629  0.25254558     0.21300
C2273       C  0.78236986  0.23913450  0.26065501    -0.53500
C2274       C  0.75558874  0.22297444  0.24436341     0.10500
C2275       C  0.74754004  0.29611803  0.26158033    -0.53000
C2276       C  0.72114267  0.28051354  0.24334281     0.11000
H2277       H  0.73520684  0.24704668  0.33849950     0.15600
H2278       H  0.69477484  0.22712448  0.24113070     0.01300
H2279       H  0.81225275  0.23240478  0.25433731     0.15900
H2280       H  0.75553270  0.32400735  0.25681889     0.15700
C2281       C  0.54472642  0.05440006  0.53923398     0.87400
C2282       C  0.55888081  0.08898532  0.52148245    -0.52800
C2283       C  0.57157453  0.11321423  0.54382790     0.10400
C2284       C  0.57349543  0.09619734  0.58246450     0.21300
C2285       C  0.57984232  0.03862907  0.55357991    -0.53500
C2286       C  0.59415987  0.05778092  0.57850618     0.10500
C2287       C  0.51689428  0.06809791  0.57142713    -0.53000
C2288       C  0.53161600  0.08833381  0.59496976     0.11000
H2289       H  0.55686511  0.09439049  0.99360864     0.15600
H2290       H  0.58599780  0.11412955  0.60012438     0.01300
H2291       H  0.58765442  0.51057210  0.54986591     0.15900
H2292       H  0.98755314  0.06182900  0.57670738     0.15700
C2293       C  0.94894377  0.03042523  0.95493599     0.87400
C2294       C  0.93131817  0.00288480  0.93429054    -0.52800
C2295       C  0.89896942  0.01520839  0.92139386     0.10400
C2296       C  0.88726477  0.05405501  0.93220002     0.21300
C2297       C  0.95552051  0.06143124  0.92820563    -0.53500
C2298       C  0.92320913  0.07694249  0.91852261     0.10500
C2299       C  0.91770526  0.04016759  0.98413001    -0.53000
C2300       C  0.88446915  0.05059124  0.97309570     0.11000
H2301       H  0.94568290  0.47800638  0.92648796     0.15600
H2302       H  0.86105067  0.06461922  0.92222811     0.01300
H2303       H  0.98269875  0.07466618  0.92342457     0.15900
H2304       H  0.92275419  0.03871689  0.51170708     0.15700
C2305       C  0.94954930  0.45621315  0.54773600     0.87400
C2306       C  0.97112778  0.43760390  0.57581418    -0.52800
C2307       C  0.95464221  0.40888280  0.59402357     0.10400
C2308       C  0.91435764  0.40299349  0.58287266     0.21300
C2309       C  0.93731732  0.42692888  0.52494117    -0.53500
C2310       C  0.91932091  0.39931933  0.54266856     0.10500
C2311       C  0.91262092  0.46848719  0.56896747    -0.53000
C2312       C  0.89269610  0.44045745  0.58663598     0.11000
H2313       H  0.00078421  0.44303591  0.57695482     0.15600
H2314       H  0.90043932  0.37914959  0.59667439     0.01300
H2315       H  0.94191542  0.42568850  0.49666395     0.15900
H2316       H  0.90439646  0.99642891  0.57151102     0.15700
C2317       C  0.54214824  0.44015850  0.95897462     0.87400
C2318       C  0.56618359  0.41561571  0.97980288    -0.52800
C2319       C  0.58543087  0.38972926  0.96048364     0.10400
C2320       C  0.57151830  0.38632730  0.92323535     0.21300
C2321       C  0.56625851  0.45102688  0.92273134    -0.53500
C2322       C  0.58157590  0.42238926  0.90357654     0.10500
C2323       C  0.51317970  0.41312110  0.94906298    -0.53000
C2324       C  0.52801022  0.38757080  0.92597298     0.11000
H2325       H  0.57361878  0.42333238  0.50474351     0.15600
H2326       H  0.58298762  0.36165467  0.91039051     0.01300
H2327       H  0.57132301  0.47878329  0.91371886     0.15900
H2328       H  0.98270476  0.41810110  0.95045138     0.15700
C2329       C  0.52525841  0.02683782  0.51674559     0.87400
C2330       C  0.00264527  0.04480298  0.48887365    -0.52800
C2331       C  0.98263882  0.02033467  0.97242584     0.10400
C2332       C  0.98596159  0.48244319  0.98616515     0.21300
C2333       C  0.99635770  0.50536624  0.54206900    -0.53500
C2334       C  0.97488420  0.48334164  0.52637937     0.10500
C2335       C  0.54903091  0.49665708  0.49552852    -0.53000
C2336       C  0.52799776  0.47313869  0.98023033     0.11000
H2337       H  0.99760618  0.07332186  0.98573419     0.15600
H2338       H  0.96918024  0.46595592  0.97278971     0.01300
H2339       H  0.99458138  0.50483071  0.57078851     0.15900
H2340       H  0.57961318  0.49415259  0.49319232     0.15700
N2341       N  0.88500979  0.38318035  0.76501344    -0.02500
C2342       C  0.85887662  0.35827870  0.78018833     0.00100
C2343       C  0.82348585  0.37474199  0.78717717    -0.22800
C2344       C  0.82661501  0.40934526  0.77734986    -0.23000
C2345       C  0.86404493  0.41554249  0.76501211     0.00000
H2346       H  0.79681170  0.36277772  0.79729381     0.13800
H2347       H  0.80292464  0.42828964  0.77914001     0.13800
N2348       N  0.80793739  0.36520865  0.89612069    -0.02500
C2349       C  0.83637481  0.34369589  0.87953351     0.00100
C2350       C  0.86755370  0.36547920  0.86919539    -0.22800
C2351       C  0.85328821  0.39924640  0.86476570    -0.23000
C2352       C  0.81609768  0.39769579  0.87882053     0.00000
H2353       H  0.89566468  0.35817786  0.85725573     0.13800
H2354       H  0.86771356  0.42175829  0.85057477     0.13800
N2355       N  0.74426837  0.38005979  0.60858668    -0.02500
C2356       C  0.75624361  0.35353642  0.63077074     0.00100
C2357       C  0.78379010  0.36745767  0.64862641    -0.22800
C2358       C  0.77535548  0.40294107  0.64996193    -0.23000
C2359       C  0.75075117  0.41036510  0.62583687     0.00000
H2360       H  0.80116018  0.35382744  0.66650530     0.13800
H2361       H  0.78456361  0.42123882  0.66819981     0.13800
N2362       N  0.86571721  0.21604501  0.61773030    -0.02500
C2363       C  0.83288625  0.23108708  0.63312361     0.00100
C2364       C  0.84026446  0.26584272  0.64281731    -0.22800
C2365       C  0.87850397  0.26774481  0.64192513    -0.23000
C2366       C  0.89300791  0.23585552  0.62860720     0.00000
H2367       H  0.82072514  0.28571957  0.65496919     0.13800
H2368       H  0.89363249  0.28849468  0.65280393     0.13800
O2369       O  0.79274844  0.33738253  0.95528895    -0.70800
O2370       O  0.75932814  0.34622992  0.55640429    -0.71000
O2371       O  0.72785251  0.35118157  0.99725990    -0.70900
O2372       O  0.82700655  0.33069286  0.51658141    -0.70900
O2373       O  0.84103181  0.38699168  0.51153964    -0.70900
O2374       O  0.74066498  0.40790547  0.99380349    -0.70900
O2375       O  0.77329935  0.40272872  0.55197401    -0.70800
O2376       O  0.80498483  0.39417506  0.95170480    -0.71000
V2377       V  0.77725527  0.34248151  0.50634592     1.35200
V2378       V  0.78975214  0.39690269  0.50228494     1.35200
C2379       C  0.80157566  0.36539235  0.93557204     0.78400
C2380       C  0.75860424  0.37652578  0.57092097     0.78500
C2381       C  0.71723257  0.38322335  0.99255410     0.74300
C2382       C  0.85141716  0.35457104  0.51717074     0.78300
O2383       O  0.85145687  0.22322861  0.96243997    -0.70800
O2384       O  0.84107835  0.22123760  0.56352220    -0.71000
O2385       O  0.86023615  0.27101252  0.51091789    -0.70900
O2386       O  0.83225068  0.17371841  0.51672550    -0.70900
O2387       O  0.89123649  0.15772363  0.51625013    -0.70900
O2388       O  0.91887414  0.25350977  0.50929871    -0.70900
O2389       O  0.90017415  0.20495951  0.56216084    -0.70800
O2390       O  0.91045506  0.20771248  0.96107493    -0.71000
V2391       V  0.84716338  0.22208873  0.51337618     1.35200
V2392       V  0.90385727  0.20622722  0.51201524     1.35200
C2393       C  0.88325236  0.21724530  0.94446270     0.78400
C2394       C  0.86878963  0.21255107  0.58002866     0.78500
C2395       C  0.89468328  0.27856709  0.50843825     0.78300
C2396       C  0.85710675  0.14939376  0.51958435     0.78300
N2397       N  0.89066329  0.34432643  0.52008530    -0.02500
C2398       C  0.91989383  0.36585934  0.52391868     0.00100
C2399       C  0.95397104  0.35205091  0.50804628    -0.22800
C2400       C  0.94681067  0.31979225  0.49620630    -0.23000
C2401       C  0.90849673  0.31494295  0.50511576     0.00000
H2402       H  0.98144816  0.36387072  0.50574943     0.13800
H2403       H  0.96787025  0.30057130  0.48489848     0.13800
N2404       N  0.89696164  0.24618858  0.88188103    -0.02500
C2405       C  0.88712564  0.21761664  0.90517810     0.00100
C2406       C  0.87420212  0.18948030  0.88847092    -0.22800
C2407       C  0.87416244  0.20067996  0.85389553    -0.23000
C2408       C  0.88393374  0.23670015  0.85107229     0.00000
H2409       H  0.86352888  0.16430322  0.90070196     0.13800
H2410       H  0.86228089  0.18562265  0.83452350     0.13800
N2411       N  0.61227373  0.38197121  0.71015532    -0.02500
C2412       C  0.63339267  0.36817391  0.68070706     0.00100
C2413       C  0.64796412  0.39593689  0.65776451    -0.22800
C2414       C  0.64527769  0.42586911  0.67697026    -0.23000
C2415       C  0.62592246  0.41636520  0.70955542     0.00000
H2416       H  0.66666825  0.39373016  0.63311260     0.13800
H2417       H  0.65794969  0.45147863  0.66881923     0.13800
O2418       O  0.98848240  0.39508781  0.67633387    -0.70800
O2419       O  0.50273159  0.40721405  0.77464448    -0.71000
O2420       O  0.54963382  0.40438577  0.71399148    -0.70900
O2421       O  0.94351786  0.40467912  0.73904224    -0.70900
O2422       O  0.94289164  0.34719657  0.75069120    -0.70900
O2423       O  0.55444944  0.34667078  0.72287965    -0.70900
O2424       O  0.50625969  0.34948129  0.78451051    -0.70800
O2425       O  0.99057705  0.33767068  0.68794327    -0.71000
V2426       V  0.99619161  0.40120120  0.72586396     1.35200
V2427       V  0.99812460  0.34586442  0.73578656     1.35200
C2428       C  0.98650185  0.36318868  0.66552606     0.78400
C2429       C  0.50610678  0.38027101  0.79642537     0.78500
C2430       C  0.57092762  0.37709097  0.71611390     0.78300
C2431       C  0.92496736  0.37773379  0.75111734     0.78300
O2432       O  0.56322493  0.23796626  0.86463311    -0.70800
O2433       O  0.95883280  0.26071030  0.85402988    -0.71000
O2434       O  0.52248309  0.30309594  0.84723615    -0.70900
O2435       O  0.99699716  0.20270464  0.87032628    -0.70900
O2436       O  0.99203214  0.21396609  0.92609166    -0.70900
O2437       O  0.50678693  0.31366189  0.90290489    -0.70900
O2438       O  0.94696388  0.26744007  0.91076285    -0.70800
O2439       O  0.55343247  0.25520391  0.91869041    -0.71000
V2440       V  0.51084869  0.25243284  0.85961904     1.35200
V2441       V  0.50057154  0.26314429  0.91318180     1.35200
C2442       C  0.57527161  0.23920886  0.89475451     0.78400
C2443       C  0.93462734  0.26109613  0.88179162     0.78500
C2444       C  0.51545271  0.32617011  0.87129471     0.78300
C2445       C  0.98729497  0.19255286  0.90236814     0.78300
N2446       N  0.51476150  0.36553667  0.86431893    -0.02500
C2447       C  0.51095707  0.38951405  0.89134155     0.00100
C2448       C  0.50038667  0.42338880  0.87876853    -0.22800
C2449       C  0.49906731  0.42186426  0.84389923    -0.23000
C2450       C  0.50748322  0.38699303  0.83469883     0.00000
H2451       H  0.49776205  0.44822895  0.89263799     0.13800
H2452       H  0.49315053  0.44470913  0.82667632     0.13800
N2453       N  0.61143380  0.22168438  0.90259645    -0.02500
C2454       C  0.62769180  0.18841034  0.89220346     0.00100
C2455       C  0.65462387  0.17753882  0.91346321    -0.22800
C2456       C  0.66101799  0.20623815  0.93170382    -0.23000
C2457       C  0.63306332  0.23150700  0.92748305     0.00000
H2458       H  0.67384894  0.15442938  0.91052516     0.13800
H2459       H  0.68386155  0.20843208  0.94733752     0.13800
N2460       N  0.87092789  0.12959251  0.72132801    -0.02500
C2461       C  0.85742977  0.15216096  0.69638912     0.00100
C2462       C  0.87368172  0.18550352  0.69817542    -0.22800
C2463       C  0.89259053  0.18467866  0.72672921    -0.23000
C2464       C  0.88939597  0.15047169  0.74122013     0.00000
H2465       H  0.86341361  0.21078857  0.68860196     0.13800
H2466       H  0.90520077  0.20742118  0.73708665     0.13800
O2467       O  0.84471250  0.47664572  0.76402325    -0.70800
O2468       O  0.84054459  0.07427121  0.73218352    -0.71000
O2469       O  0.83231789  0.50995365  0.70393927    -0.70900
O2470       O  0.85355643  0.03874030  0.79279961    -0.70900
O2471       O  0.91250334  0.02546055  0.77669624    -0.70900
O2472       O  0.89230155  0.01471422  0.68346758    -0.70900
O2473       O  0.90191331  0.07246500  0.72165851    -0.70800
O2474       O  0.90189312  0.46857769  0.73835864    -0.71000
V2475       V  0.84392489  0.02517704  0.74769444     1.35200
V2476       V  0.90146020  0.02109623  0.73019719     1.35200
C2477       C  0.87218930  0.45495830  0.75547328     0.78400
C2478       C  0.87096280  0.09076839  0.72395619     0.78500
C2479       C  0.85976885  0.00457637  0.67983261     0.78300
C2480       C  0.88544216  0.02949875  0.80125603     0.78300
O2481       O  0.70559971  0.97383277  0.89576642    -0.70800
O2482       O  0.80567085  0.00748952  0.90008668    -0.71000
O2483       O  0.73609756  0.03868503  0.89682969    -0.70900
O2484       O  0.77350358  0.44318695  0.90257053    -0.70900
O2485       O  0.79018562  0.44574531  0.84548032    -0.70900
O2486       O  0.74214772  0.03887132  0.83925229    -0.70900
O2487       O  0.81201722  0.01365871  0.84287913    -0.70800
O2488       O  0.72013589  0.47020042  0.83856215    -0.71000
V2489       V  0.75501892  0.99109318  0.89790697     1.35200
V2490       V  0.76579689  0.99209369  0.84271829     1.35200
C2491       C  0.69747356  0.46421267  0.86609327     0.78400
C2492       C  0.82663098  0.01489220  0.87088116     0.78500
C2493       C  0.73356872  0.05564128  0.86770935     0.78300
C2494       C  0.79078534  0.42921130  0.87547173     0.78300
N2495       N  0.86725715  0.01821225  0.86842580    -0.02500
C2496       C  0.88518070  0.99777058  0.89169202     0.00100
C2497       C  0.90985758  0.97352780  0.87341615    -0.22800
C2498       C  0.91546871  0.98626542  0.83929796    -0.23000
C2499       C  0.89037922  0.01473930  0.83691286     0.00000
H2500       H  0.92621134  0.95185018  0.88412572     0.13800
H2501       H  0.93447456  0.97479513  0.81795484     0.13800
N2502       N  0.72794982  0.09429373  0.86755277    -0.02500
C2503       C  0.73433041  0.11396876  0.83680023     0.00100
C2504       C  0.77255345  0.12308683  0.83160193    -0.22800
C2505       C  0.78192423  0.12509704  0.86513070    -0.23000
C2506       C  0.75193948  0.10983883  0.88644101     0.00000
H2507       H  0.78780367  0.13669038  0.80849813     0.13800
H2508       H  0.80543265  0.13906548  0.87307217     0.13800
O2509       O  0.60614636  0.32668567  0.50702150    -0.70800
O2510       O  0.59022279  0.22693727  0.53540957    -0.71000
O2511       O  0.59924016  0.28524830  0.57191927    -0.70900
O2512       O  0.59663056  0.26439243  0.97390744    -0.70900
O2513       O  0.65775884  0.26616091  0.96658565    -0.70900
O2514       O  0.65928214  0.27194426  0.56430724    -0.70900
O2515       O  0.65074491  0.21768142  0.52351460    -0.70800
O2516       O  0.66623582  0.31794521  0.50763428    -0.71000
V2517       V  0.59899446  0.27669484  0.52218772     1.35200
V2518       V  0.65727182  0.26846066  0.51595218     1.35200
C2519       C  0.63958086  0.33865803  0.50050088     0.78400
C2520       C  0.61796944  0.20475972  0.53163065     0.78500
C2521       C  0.62936234  0.27687008  0.58527147     0.78300
C2522       C  0.62779663  0.25846352  0.95474527     0.78300
N2523       N  0.64815239  0.37354780  0.98334680    -0.02500
C2524       C  0.62632737  0.39331435  0.96253845     0.00100
C2525       C  0.64407280  0.42526927  0.95062327    -0.22800
C2526       C  0.67764152  0.42501201  0.96285932    -0.23000
C2527       C  0.68050613  0.39300240  0.98158234     0.00000
H2528       H  0.63328557  0.44832150  0.93676858     0.13800
H2529       H  0.69829166  0.44602120  0.95821016     0.13800
O2530       O  0.00228323  0.26572437  0.59824422    -0.70800
O2531       O  0.51081553  0.16468622  0.61765962    -0.71000
O2532       O  0.95372404  0.21226863  0.60679640    -0.70900
O2533       O  0.55893445  0.22032108  0.60675794    -0.70900
O2534       O  0.55033154  0.22717671  0.66378533    -0.70900
O2535       O  0.94428969  0.22665453  0.66204809    -0.70900
O2536       O  0.49834785  0.17414297  0.67387589    -0.70800
O2537       O  0.99704814  0.27588544  0.65449245    -0.71000
V2538       V  0.00616157  0.21572058  0.60868354     1.35200
V2539       V  0.99735235  0.22501423  0.66286867     1.35200
C2540       C  0.00008888  0.28800016  0.62276964     0.78400
C2541       C  0.50613230  0.15189179  0.64950927     0.78500
C2542       C  0.93149002  0.22294981  0.63290735     0.78300
C2543       C  0.57196305  0.22768634  0.63456270     0.78300
N2544       N  0.98352921  0.35512837  0.62837509    -0.02500
C2545       C  0.98327304  0.37990988  0.60050219     0.00100
C2546       C  0.00776416  0.36935569  0.57126752    -0.22800
C2547       C  0.01965156  0.33560901  0.57854538    -0.23000
C2548       C  0.00332772  0.32661348  0.61254410     0.00000
H2549       H  0.01363438  0.38370618  0.54583294     0.13800
H2550       H  0.03538665  0.31816264  0.55958549     0.13800
N2551       N  0.62965658  0.26583233  0.62221603    -0.02500
C2552       C  0.66480947  0.25899269  0.63154575     0.00100
C2553       C  0.67090367  0.22240616  0.63634884    -0.22800
C2554       C  0.63624311  0.20736747  0.64035309    -0.23000
C2555       C  0.61184834  0.23448751  0.63314647     0.00000
H2556       H  0.69663810  0.20980161  0.64325114     0.13800
H2557       H  0.62847555  0.18020327  0.64880952     0.13800
O2558       O  0.74421481  0.14546555  0.93632832    -0.70800
O2559       O  0.74200831  0.15168744  0.53586904    -0.71000
O2560       O  0.79271034  0.13433981  0.98032167    -0.70900
O2561       O  0.69181410  0.16393854  0.49142424    -0.70900
O2562       O  0.67421313  0.10869137  0.49032862    -0.70900
O2563       O  0.77598950  0.07959066  0.99622385    -0.70900
O2564       O  0.71628914  0.09911374  0.54338004    -0.70800
O2565       O  0.73382681  0.08815451  0.94447765    -0.71000
V2566       V  0.74199458  0.14789621  0.98587487     1.35200
V2567       V  0.72527615  0.09458988  0.99332393     1.35200
C2568       C  0.74297591  0.11475078  0.92390721     0.78400
C2569       C  0.72737220  0.12682753  0.55650597     0.78500
C2570       C  0.80168959  0.10251831  0.98822173     0.78300
C2571       C  0.66590027  0.14184552  0.49154456     0.78300
N2572       N  0.83922833  0.09512537  0.99479142    -0.02500
C2573       C  0.85173027  0.06128378  0.99907205     0.00100
C2574       C  0.85460968  0.05479269  0.03505465    -0.22800
C2575       C  0.85590187  0.08785095  0.04943288    -0.23000
C2576       C  0.84749110  0.11181659  0.52308363     0.00000
H2577       H  0.86401668  0.03000267  0.04692477     0.13800
H2578       H  0.86603061  0.09357047  0.57425547     0.13800
O2579       O  0.73130809  0.46462511  0.65252970    -0.70800
O2580       O  0.74639332  0.06493364  0.64887449    -0.71000
O2581       O  0.68541002  0.02398448  0.65539696    -0.70900
O2582       O  0.79059502  0.00589508  0.64820296    -0.70900
O2583       O  0.79537784  0.99980250  0.59140304    -0.70900
O2584       O  0.68789215  0.02853108  0.59825297    -0.70900
O2585       O  0.75530822  0.06379742  0.59138824    -0.70800
O2586       O  0.73114554  0.46454542  0.59547876    -0.71000
V2587       V  0.73842348  0.01474372  0.65002732     1.35200
V2588       V  0.74207922  0.01456499  0.59500883     1.35200
C2589       C  0.73401173  0.44719676  0.62431504     0.78400
C2590       C  0.75281555  0.08183331  0.61907586     0.78500
C2591       C  0.66811383  0.03088410  0.62894211     0.78300
C2592       C  0.81054112  0.99660218  0.61998656     0.78300
N2593       N  0.84732236  0.47989882  0.62237793    -0.02500
C2594       C  0.85670213  0.44612941  0.61057292     0.00100
C2595       C  0.85534980  0.42166402  0.63924995    -0.22800
C2596       C  0.85838912  0.44104117  0.66769402    -0.23000
C2597       C  0.85689037  0.97622578  0.65595174     0.00000
H2598       H  0.85961228  0.39284486  0.63935277     0.13800
H2599       H  0.86289766  0.43036420  0.69363445     0.13800
N2600       N  0.74829967  0.12060237  0.61663888    -0.02500
C2601       C  0.73415865  0.13620419  0.64736226     0.00100
C2602       C  0.69553015  0.14154029  0.64837091    -0.22800
C2603       C  0.68814843  0.13934046  0.61404258    -0.23000
C2604       C  0.72226433  0.13068525  0.59493667     0.00000
H2605       H  0.67607589  0.15112093  0.67029773     0.13800
H2606       H  0.66167188  0.14502551  0.60370525     0.13800
O2607       O  0.65134838  0.46093785  0.74253528    -0.70800
O2608       O  0.64055446  0.05653090  0.78008723    -0.71000
O2609       O  0.65168783  0.48838210  0.80839378    -0.70900
O2610       O  0.64226600  0.02656620  0.71482231    -0.70900
O2611       O  0.58175399  0.02006738  0.72672203    -0.70900
O2612       O  0.59149740  0.47861875  0.81867462    -0.70900
O2613       O  0.58075055  0.04587659  0.79189742    -0.70800
O2614       O  0.59064895  0.45383720  0.75254264    -0.71000
V2615       V  0.64545616  0.50783949  0.76200400     1.35200
V2616       V  0.58741414  0.50012948  0.77248946     1.35200
C2617       C  0.62245770  0.44311811  0.73792314     0.78400
C2618       C  0.60756997  0.06733510  0.79252061     0.78500
C2619       C  0.62378976  0.47563623  0.82905043     0.78300
C2620       C  0.61048779  0.02599454  0.70382382     0.78300
N2621       N  0.62959098  0.45463390  0.86127418    -0.02500
C2622       C  0.60892731  0.42459243  0.87004943     0.00100
C2623       C  0.63231343  0.39433005  0.86351299    -0.22800
C2624       C  0.66840475  0.40564754  0.86202581    -0.23000
C2625       C  0.66520792  0.44227559  0.86370072     0.00000
H2626       H  0.62493094  0.36633383  0.86615839     0.13800
H2627       H  0.69379564  0.38901367  0.86195810     0.13800
O2628       O  0.92974804  0.16193891  0.78165272    -0.70800
O2629       O  0.52756255  0.12985532  0.78902796    -0.71000
O2630       O  0.98701047  0.13788975  0.73590167    -0.70900
O2631       O  0.97075090  0.15459123  0.83569501    -0.70900
O2632       O  0.93877553  0.10563201  0.84445681    -0.70900
O2633       O  0.98113428  0.08126848  0.75117844    -0.70900
O2634       O  0.50553590  0.08105712  0.81698862    -0.70800
O2635       O  0.91472502  0.10622935  0.77883468    -0.71000
V2636       V  0.97835826  0.14562915  0.78604339     1.35200
V2637       V  0.96000989  0.09386074  0.79760347     1.35200
C2638       C  0.90959558  0.13901707  0.77049385     0.78400
C2639       C  0.53182116  0.10323831  0.80986906     0.78500
C2640       C  0.98806690  0.10564102  0.72668010     0.78300
C2641       C  0.95180657  0.13280010  0.85725257     0.78300
N2642       N  0.94691266  0.13746185  0.89527435    -0.02500
C2643       C  0.92515095  0.11644146  0.92017577     0.00100
C2644       C  0.92948247  0.12738002  0.95366575    -0.22800
C2645       C  0.95767271  0.15151626  0.94982761    -0.23000
C2646       C  0.96677082  0.15911287  0.91400703     0.00000
H2647       H  0.92067404  0.11276719  0.97837225     0.13800
H2648       H  0.96908011  0.16360352  0.97139689     0.13800
N2649       N  0.59862669  0.10123607  0.80993557    -0.02500
C2650       C  0.61168804  0.13575738  0.80390484     0.00100
C2651       C  0.58635347  0.15847179  0.82346931    -0.22800
C2652       C  0.56161116  0.13742208  0.84506404    -0.23000
C2653       C  0.56412352  0.10483494  0.82929714     0.00000
H2654       H  0.58840069  0.18722396  0.82514698     0.13800
H2655       H  0.53734920  0.14776626  0.86181149     0.13800
N2656       N  0.50765524  0.11307581  0.65742467    -0.02500
C2657       C  0.51272536  0.08690287  0.63271402     0.00100
C2658       C  0.49988560  0.05431660  0.64778506    -0.22800
C2659       C  0.49006539  0.05871237  0.68290258    -0.23000
C2660       C  0.49542486  0.09434584  0.68896702     0.00000
H2661       H  0.49871706  0.02925673  0.63476687     0.13800
H2662       H  0.48012039  0.03764749  0.70223274     0.13800
N2663       N  0.62681450  0.03813158  0.63463629    -0.02500
C2664       C  0.60358858  0.03279272  0.60914405     0.00100
C2665       C  0.57485887  0.00970438  0.62278907    -0.22800
C2666       C  0.57489595  0.00659643  0.65805636    -0.23000
C2667       C  0.60511291  0.02557490  0.66551872     0.00000
H2668       H  0.55232504  0.00030458  0.60935265     0.13800
H2669       H  0.55408866  0.99248793  0.67664169     0.13800
N2670       N  0.61235181  0.16616721  0.52977984    -0.02500
C2671       C  0.57706814  0.15276816  0.53124238     0.00100
C2672       C  0.56621065  0.15913378  0.49748102    -0.22800
C2673       C  0.59944277  0.15253968  0.47577884    -0.23000
C2674       C  0.62712290  0.15488132  0.49767958     0.00000
H2675       H  0.53885823  0.15317379  0.49001459     0.13800
H2676       H  0.60174005  0.14159334  0.44976194     0.13800
C2677       C  0.68879072  0.20206497  0.80586094     0.87400
C2678       C  0.71913704  0.17594730  0.81565275    -0.52800
C2679       C  0.70697041  0.14476274  0.83186346     0.10400
C2680       C  0.66342599  0.14455221  0.84066858     0.21300
C2681       C  0.66399915  0.17846536  0.78477315    -0.53500
C2682       C  0.65077099  0.14729167  0.80372856     0.10500
C2683       C  0.66303234  0.21079382  0.83835490    -0.53000
C2684       C  0.64827754  0.18197315  0.85675035     0.11000
H2685       H  0.74870892  0.18157162  0.80764371     0.15600
H2686       H  0.65304792  0.12034491  0.85690498     0.01300
H2687       H  0.65111926  0.18883826  0.76196079     0.15900
H2688       H  0.65759506  0.23819368  0.84688119     0.15700
C2689       C  0.76684050  0.19903230  0.71398413     0.87400
C2690       C  0.78363258  0.22407612  0.68390879    -0.52800
C2691       C  0.80289884  0.20877193  0.65525752     0.10400
C2692       C  0.80014779  0.16683284  0.65863690     0.21300
C2693       C  0.73954208  0.17683551  0.69722481    -0.53500
C2694       C  0.75662534  0.15900384  0.66797324     0.10500
C2695       C  0.79679381  0.17115789  0.72241671    -0.53000
C2696       C  0.81651716  0.15553979  0.69359160     0.11000
H2697       H  0.78237270  0.25269921  0.68728747     0.15600
H2698       H  0.81420726  0.15291091  0.63504893     0.01300
H2699       H  0.70996187  0.17487551  0.70795140     0.15900
H2700       H  0.80626495  0.16887800  0.74850883     0.15700
C2701       C  0.80337369  0.28256821  0.80473532     0.87400
C2702       C  0.82834558  0.25184309  0.81771520    -0.52800
C2703       C  0.86150775  0.26203233  0.82905911     0.10400
C2704       C  0.86603231  0.30311869  0.82637741     0.21300
C2705       C  0.79743149  0.30720348  0.83831841    -0.53500
C2706       C  0.83084784  0.31735405  0.85049697     0.10500
C2707       C  0.83136871  0.30199491  0.77622748    -0.53000
C2708       C  0.86107023  0.31808428  0.78800766     0.11000
H2709       H  0.81835831  0.22449564  0.82014789     0.15600
H2710       H  0.89393864  0.30951825  0.83358453     0.01300
H2711       H  0.76969883  0.31614227  0.85043371     0.15900
H2712       H  0.82271047  0.31034822  0.75064835     0.15700
C2713       C  0.70636794  0.29704403  0.70970397     0.87400
C2714       C  0.73765203  0.31545731  0.68564845    -0.52800
C2715       C  0.72840040  0.33022737  0.65416792     0.10400
C2716       C  0.68639993  0.32363323  0.64947336     0.21300
C2717       C  0.67312855  0.32461162  0.71459259    -0.53500
C2718       C  0.66185776  0.33807723  0.68315134     0.10500
C2719       C  0.69350689  0.26953272  0.68536014    -0.53000
C2720       C  0.68242869  0.28294438  0.65439819     0.11000
H2721       H  0.76557769  0.31572869  0.69358411     0.15600
H2722       H  0.67821211  0.33439681  0.62379116     0.01300
H2723       H  0.66026529  0.33312636  0.74046787     0.15900
H2724       H  0.69317932  0.24122896  0.69091071     0.15700
C2725       C  0.76767299  0.26916245  0.78641512     0.87400
C2726       C  0.73425284  0.25187879  0.81039240    -0.52800
C2727       C  0.70842368  0.23580373  0.79178062     0.10400
C2728       C  0.71667338  0.24029970  0.75264658     0.21300
C2729       C  0.78209398  0.23903084  0.76099171    -0.53500
C2730       C  0.75535316  0.22297669  0.74458796     0.10500
C2731       C  0.74737484  0.29607988  0.76185628    -0.53000
C2732       C  0.72105182  0.28056470  0.74347321     0.11000
H2733       H  0.73472687  0.24687441  0.83871735     0.15600
H2734       H  0.69461467  0.22722532  0.74114841     0.01300
H2735       H  0.81197761  0.23222628  0.75476894     0.15900
H2736       H  0.75546624  0.32394471  0.75711855     0.15700
C2737       C  0.54509245  0.55459919  0.03935967     0.87400
C2738       C  0.55914067  0.58915485  0.02157908    -0.52800
C2739       C  0.57188257  0.61337186  0.04385484     0.10400
C2740       C  0.57401656  0.59637063  0.08247706     0.21300
C2741       C  0.58035054  0.53889948  0.05344617    -0.53500
C2742       C  0.59463732  0.55794688  0.07842739     0.10500
C2743       C  0.51737935  0.56821282  0.07169813    -0.53000
C2744       C  0.53219858  0.58848302  0.09516566     0.11000
H2745       H  0.55683862  0.59412975  0.49326340     0.15600
H2746       H  0.58661358  0.61430863  0.10006163     0.01300
H2747       H  0.58866955  0.01109502  0.04945564     0.15900
H2748       H  0.98684926  0.56202576  0.07583266     0.15700
C2749       C  0.94948320  0.53089114  0.45476372     0.87400
C2750       C  0.93191919  0.50338813  0.43397083    -0.52800
C2751       C  0.89961293  0.51570436  0.42092765     0.10400
C2752       C  0.88775773  0.55442970  0.43193131     0.21300
C2753       C  0.95596835  0.56205822  0.42820399    -0.53500
C2754       C  0.92363803  0.57739342  0.41834055     0.10500
C2755       C  0.91817751  0.54049900  0.48393054    -0.53000
C2756       C  0.88490820  0.55085630  0.47286600     0.11000
H2757       H  0.94633424  0.97844237  0.42658641     0.15600
H2758       H  0.86153570  0.56495159  0.42193791     0.01300
H2759       H  0.98306508  0.57542901  0.42353731     0.15900
H2760       H  0.92228004  0.53849693  0.01156112     0.15700
C2761       C  0.94995414  0.95545429  0.04814081     0.87400
C2762       C  0.97124547  0.93784536  0.07693899    -0.52800
C2763       C  0.95513965  0.90890515  0.09508363     0.10400
C2764       C  0.91512096  0.90220861  0.08358976     0.21300
C2765       C  0.93904044  0.92533975  0.02567100    -0.53500
C2766       C  0.92084935  0.89790904  0.04350104     0.10500
C2767       C  0.91249373  0.96742278  0.06847583    -0.53000
C2768       C  0.89283601  0.93943726  0.08644130     0.11000
H2769       H  0.00071750  0.94380378  0.07838791     0.15600
H2770       H  0.90137674  0.87839708  0.09763325     0.01300
H2771       H  0.94527835  0.92315478  0.99764696     0.15900
H2772       H  0.90358275  0.49547578  0.07058029     0.15700
C2773       C  0.54146520  0.94002826  0.45863115     0.87400
C2774       C  0.56535537  0.91537065  0.47949085    -0.52800
C2775       C  0.58482761  0.88967944  0.46012200     0.10400
C2776       C  0.57108376  0.88638725  0.42277762     0.21300
C2777       C  0.56563671  0.95106634  0.42246930    -0.53500
C2778       C  0.58115075  0.92255116  0.40325578     0.10500
C2779       C  0.51256295  0.91312402  0.44845578    -0.53000
C2780       C  0.52755566  0.88751977  0.42546356     0.11000
H2781       H  0.57511622  0.92380934  0.00486672     0.15600
H2782       H  0.58265598  0.86179483  0.40984417     0.01300
H2783       H  0.57077147  0.97887056  0.41364588     0.15900
H2784       H  0.98352950  0.91776983  0.45174343     0.15700
C2785       C  0.52564162  0.52710679  0.01684288     0.87400
C2786       C  0.00207624  0.54448575  0.98860890    -0.52800
C2787       C  0.98327447  0.52073900  0.47221891     0.10400
C2788       C  0.98675576  0.98277132  0.48620092     0.21300
C2789       C  0.99615834  0.00507661  0.04210383    -0.53500
C2790       C  0.97471220  0.98288375  0.02660956     0.10500
C2791       C  0.54973210  0.99703583  0.99581326    -0.53000
C2792       C  0.52739340  0.97286759  0.48008232     0.11000
H2793       H  0.99808446  0.57366092  0.48578998     0.15600
H2794       H  0.97031372  0.96623309  0.47256440     0.01300
H2795       H  0.99451300  0.00471206  0.07081297     0.15900
H2796       H  0.58029804  0.99459144  0.99350920     0.15700
N2797       N  0.88565919  0.88359329  0.26469735    -0.02500
C2798       C  0.85946046  0.85875794  0.27992293     0.00100
C2799       C  0.82411856  0.87527844  0.28693807    -0.22800
C2800       C  0.82726885  0.90982990  0.27691064    -0.23000
C2801       C  0.86469179  0.91595298  0.26440000     0.00000
H2802       H  0.79745002  0.86335755  0.29717618     0.13800
H2803       H  0.80358568  0.92877644  0.27871423     0.13800
N2804       N  0.80807087  0.86561328  0.39576439    -0.02500
C2805       C  0.83654914  0.84406122  0.37921473     0.00100
C2806       C  0.86777802  0.86582153  0.36897916    -0.22800
C2807       C  0.85364713  0.89966286  0.36469035    -0.23000
C2808       C  0.81640436  0.89815935  0.37860399     0.00000
H2809       H  0.89591873  0.85850336  0.35716865     0.13800
H2810       H  0.86824869  0.92225661  0.35081876     0.13800
N2811       N  0.74444825  0.87978488  0.10844955    -0.02500
C2812       C  0.75619043  0.85331347  0.13079346     0.00100
C2813       C  0.78372980  0.86724521  0.14866148    -0.22800
C2814       C  0.77534885  0.90273982  0.14991143    -0.23000
C2815       C  0.75078469  0.91010876  0.12573474     0.00000
H2816       H  0.80110379  0.85364548  0.16655845     0.13800
H2817       H  0.78465598  0.92109920  0.16805288     0.13800
N2818       N  0.86602982  0.71611592  0.11748558    -0.02500
C2819       C  0.83310652  0.73103814  0.13285543     0.00100
C2820       C  0.84033951  0.76581635  0.14258907    -0.22800
C2821       C  0.87855382  0.76782866  0.14180245    -0.23000
C2822       C  0.89318899  0.73600827  0.12844645     0.00000
H2823       H  0.82070399  0.78565052  0.15469100     0.13800
H2824       H  0.89359341  0.78865289  0.15267375     0.13800
O2825       O  0.79245760  0.83771457  0.45495342    -0.70800
O2826       O  0.76062323  0.84577609  0.05653685    -0.71000
O2827       O  0.72732089  0.85157368  0.49662453    -0.70900
O2828       O  0.82820665  0.83031797  0.01632785    -0.70900
O2829       O  0.84222527  0.88660479  0.01178182    -0.70900
O2830       O  0.74000133  0.90831994  0.49351443    -0.70900
O2831       O  0.77416337  0.90237602  0.05205336    -0.70800
O2832       O  0.80437491  0.89456684  0.45143072    -0.71000
V2833       V  0.77831354  0.84209927  0.00646673     1.35200
V2834       V  0.79084652  0.89651226  0.00242260     1.35200
C2835       C  0.80131660  0.86574712  0.43524796     0.78400
C2836       C  0.75944423  0.87615201  0.07094767     0.78500
C2837       C  0.71665424  0.88361822  0.49207348     0.74300
C2838       C  0.85266399  0.85412267  0.01707965     0.78300
O2839       O  0.85109176  0.72352249  0.46230360    -0.70800
O2840       O  0.84170196  0.72165993  0.06316650    -0.71000
O2841       O  0.86121903  0.77080711  0.01001846    -0.70900
O2842       O  0.83244315  0.67372633  0.01685120    -0.70900
O2843       O  0.89135742  0.65738627  0.01623600    -0.70900
O2844       O  0.91972948  0.75302963  0.00875487    -0.70900
O2845       O  0.90061389  0.70479902  0.06197146    -0.70800
O2846       O  0.91017495  0.70839047  0.46096315    -0.71000
V2847       V  0.84773921  0.72200653  0.01307335     1.35200
V2848       V  0.90433565  0.70582431  0.01180021     1.35200
C2849       C  0.88297481  0.71782519  0.44430350     0.78400
C2850       C  0.86926038  0.71269987  0.07975923     0.78500
C2851       C  0.89570474  0.77819196  0.00749550     0.78300
C2852       C  0.85715849  0.64924766  0.01962724     0.78300
N2853       N  0.89196282  0.84363181  0.01973138    -0.02500
C2854       C  0.92139464  0.86431978  0.02501783     0.00100
C2855       C  0.95550181  0.85045330  0.00919797    -0.22800
C2856       C  0.94804401  0.81905715  0.99572862    -0.23000
C2857       C  0.90960736  0.81453138  0.00403286     0.00000
H2858       H  0.98314053  0.86179403  0.00771202     0.13800
H2859       H  0.96899194  0.79987337  0.98417050     0.13800
N2860       N  0.89722273  0.74671386  0.38154551    -0.02500
C2861       C  0.88700458  0.71826176  0.40492347     0.00100
C2862       C  0.87437906  0.69005293  0.38808690    -0.22800
C2863       C  0.87481303  0.70112730  0.35340802    -0.23000
C2864       C  0.88450997  0.73716575  0.35061136     0.00000
H2865       H  0.86364659  0.66487388  0.40026540     0.13800
H2866       H  0.86319777  0.68601114  0.33392067     0.13800
N2867       N  0.61169529  0.88139636  0.21013615    -0.02500
C2868       C  0.63284781  0.86757539  0.18070187     0.00100
C2869       C  0.64715759  0.89533749  0.15762602    -0.22800
C2870       C  0.64446815  0.92531240  0.17677652    -0.23000
C2871       C  0.62529467  0.91584219  0.20945999     0.00000
H2872       H  0.66585062  0.89314285  0.13296249     0.13800
H2873       H  0.65716073  0.95091360  0.16853822     0.13800
O2874       O  0.98996838  0.89531641  0.17670115    -0.70800
O2875       O  0.50284533  0.90650814  0.27424047    -0.71000
O2876       O  0.54905715  0.90377585  0.21317163    -0.70900
O2877       O  0.94420719  0.90500279  0.23873649    -0.70900
O2878       O  0.94385825  0.84772714  0.25155939    -0.70900
O2879       O  0.55382818  0.84616500  0.22287149    -0.70900
O2880       O  0.50519485  0.84873702  0.28421592    -0.70800
O2881       O  0.99112739  0.83792172  0.18869522    -0.71000
V2882       V  0.99698719  0.90171772  0.22627567     1.35200
V2883       V  0.99907343  0.84641336  0.23637146     1.35200
C2884       C  0.98753230  0.86339472  0.16611724     0.78400
C2885       C  0.50560127  0.87949620  0.29608346     0.78500
C2886       C  0.57033171  0.87653796  0.21581854     0.78300
C2887       C  0.92573549  0.87814489  0.25120052     0.78300
O2888       O  0.56322706  0.73777368  0.36497558    -0.70800
O2889       O  0.95902215  0.76190210  0.35376423    -0.71000
O2890       O  0.52207321  0.80247368  0.34722762    -0.70900
O2891       O  0.99670213  0.70346925  0.36956237    -0.70900
O2892       O  0.99300915  0.71412947  0.42538018    -0.70900
O2893       O  0.50699434  0.81325163  0.40291900    -0.70900
O2894       O  0.94729346  0.76732840  0.41069270    -0.70800
O2895       O  0.55308494  0.75442160  0.41922756    -0.71000
V2896       V  0.51079497  0.75182112  0.35989329     1.35200
V2897       V  0.50029237  0.76280496  0.41341293     1.35200
C2898       C  0.57513189  0.73876877  0.39516639     0.78400
C2899       C  0.93488190  0.76160606  0.38162320     0.78500
C2900       C  0.51528660  0.82563747  0.37120869     0.78300
C2901       C  0.98757336  0.69302034  0.40161611     0.78300
N2902       N  0.51431784  0.86497169  0.36402433    -0.02500
C2903       C  0.51042412  0.88910285  0.39090663     0.00100
C2904       C  0.49929379  0.92277449  0.37829735    -0.22800
C2905       C  0.49761375  0.92098761  0.34354400    -0.23000
C2906       C  0.50658707  0.88620066  0.33440693     0.00000
H2907       H  0.49657792  0.94773168  0.39200276     0.13800
H2908       H  0.49139708  0.94368902  0.32627224     0.13800
N2909       N  0.61145349  0.72142246  0.40283939    -0.02500
C2910       C  0.62788620  0.68824074  0.39231430     0.00100
C2911       C  0.65486698  0.67741041  0.41353693    -0.22800
C2912       C  0.66121535  0.70612854  0.43176072    -0.23000
C2913       C  0.63311693  0.73130547  0.42765933     0.00000
H2914       H  0.67415542  0.65436123  0.41055617     0.13800
H2915       H  0.68414725  0.70839348  0.44725757     0.13800
N2916       N  0.87189226  0.63002518  0.22049509    -0.02500
C2917       C  0.85785122  0.65286984  0.19610135     0.00100
C2918       C  0.87364558  0.68637005  0.19835534    -0.22800
C2919       C  0.89292857  0.68523790  0.22668091    -0.23000
C2920       C  0.89028139  0.65076916  0.24058949     0.00000
H2921       H  0.86305762  0.71169596  0.18913366     0.13800
H2922       H  0.90530242  0.70791351  0.23736771     0.13800
O2923       O  0.84505136  0.97692453  0.26205742    -0.70800
O2924       O  0.84126731  0.57480510  0.23118912    -0.71000
O2925       O  0.83345341  0.01096723  0.20212596    -0.70900
O2926       O  0.85363468  0.53862287  0.29171918    -0.70900
O2927       O  0.91277918  0.52612200  0.27566066    -0.70900
O2928       O  0.89319683  0.51451751  0.18235610    -0.70900
O2929       O  0.90260352  0.57273521  0.22033563    -0.70800
O2930       O  0.90279512  0.96895286  0.23785968    -0.71000
V2931       V  0.84438063  0.52556563  0.24630306     1.35200
V2932       V  0.90202066  0.52136954  0.22913820     1.35200
C2933       C  0.87279567  0.95531373  0.25438030     0.78400
C2934       C  0.87174601  0.59118797  0.22291774     0.78500
C2935       C  0.86058906  0.50470081  0.17853908     0.78300
C2936       C  0.88563752  0.52986576  0.30020962     0.78300
O2937       O  0.70589313  0.47470822  0.39607875    -0.70800
O2938       O  0.80651102  0.50780108  0.39967441    -0.71000
O2939       O  0.73700075  0.53929873  0.39685730    -0.70900
O2940       O  0.77358751  0.94353260  0.40239398    -0.70900
O2941       O  0.79105545  0.94669768  0.34542885    -0.70900
O2942       O  0.74232926  0.53932626  0.33931408    -0.70900
O2943       O  0.81235949  0.51416476  0.34249352    -0.70800
O2944       O  0.72060098  0.97058137  0.33887140    -0.71000
V2945       V  0.75560741  0.49165812  0.39787849     1.35200
V2946       V  0.76598330  0.49257633  0.34269154     1.35200
C2947       C  0.69766491  0.96518585  0.36636572     0.78400
C2948       C  0.82726443  0.51531886  0.37036072     0.78500
C2949       C  0.73408591  0.55614925  0.36776970     0.78300
C2950       C  0.79123585  0.92982129  0.37530951     0.78300
N2951       N  0.86794411  0.51876710  0.36761851    -0.02500
C2952       C  0.88626715  0.49850651  0.39078931     0.00100
C2953       C  0.91133297  0.47469654  0.37236215    -0.22800
C2954       C  0.91656306  0.48744464  0.33826761    -0.23000
C2955       C  0.89091435  0.51546511  0.33595208     0.00000
H2956       H  0.92809804  0.45325720  0.38291018     0.13800
H2957       H  0.93574028  0.47621081  0.31688990     0.13800
N2958       N  0.72835596  0.59475261  0.36757440    -0.02500
C2959       C  0.73485933  0.61433392  0.33680994     0.00100
C2960       C  0.77305170  0.62360150  0.33180973    -0.22800
C2961       C  0.78219647  0.62570482  0.36540925    -0.23000
C2962       C  0.75213360  0.61041481  0.38657794     0.00000
H2963       H  0.78840167  0.63718695  0.30875237     0.13800
H2964       H  0.80559102  0.63974366  0.37346972     0.13800
O2965       O  0.60670004  0.82641468  0.00673366    -0.70800
O2966       O  0.59075954  0.72676295  0.03561840    -0.71000
O2967       O  0.59982362  0.78529379  0.07174572    -0.70900
O2968       O  0.59664271  0.76477737  0.47371196    -0.70900
O2969       O  0.65780809  0.76568104  0.46688597    -0.70900
O2970       O  0.65960184  0.77077858  0.06418461    -0.70900
O2971       O  0.65114214  0.71743274  0.02246544    -0.70800
O2972       O  0.66667102  0.81773309  0.00821462    -0.71000
V2973       V  0.59941668  0.77648557  0.02212337     1.35200
V2974       V  0.65764244  0.76818804  0.01568367     1.35200
C2975       C  0.64015964  0.83844055  0.00074067     0.78400
C2976       C  0.61845207  0.70456128  0.03119605     0.78500
C2977       C  0.62975792  0.77628029  0.08513167     0.78300
C2978       C  0.62787788  0.75831346  0.45486264     0.78300
N2979       N  0.64766536  0.87376727  0.48295789    -0.02500
C2980       C  0.62565447  0.89359545  0.46236794     0.00100
C2981       C  0.64315962  0.92575963  0.45072307    -0.22800
C2982       C  0.67682655  0.92550480  0.46275873    -0.23000
C2983       C  0.67991839  0.89335537  0.48118602     0.00000
H2984       H  0.63222799  0.94887403  0.43710245     0.13800
H2985       H  0.69735189  0.94661984  0.45821829     0.13800
O2986       O  0.00359446  0.76624388  0.09803314    -0.70800
O2987       O  0.51136224  0.66456994  0.11793291    -0.71000
O2988       O  0.95411264  0.71341799  0.10607796    -0.70900
O2989       O  0.55860370  0.72085735  0.10678028    -0.70900
O2990       O  0.55020988  0.72661640  0.16396980    -0.70900
O2991       O  0.94451103  0.72646875  0.16170875    -0.70900
O2992       O  0.49778049  0.67400386  0.17406652    -0.70800
O2993       O  0.99696818  0.77602671  0.15441959    -0.71000
V2994       V  0.00654910  0.71607393  0.10829833     1.35200
V2995       V  0.99753915  0.72515040  0.16255524     1.35200
C2996       C  0.00091015  0.78834677  0.12276162     0.78400
C2997       C  0.50618754  0.65178629  0.14975530     0.78500
C2998       C  0.93178760  0.72335916  0.13244851     0.78300
C2999       C  0.57177468  0.72762053  0.13467935     0.78300
N3000       N  0.98445524  0.85533526  0.12902920    -0.02500
C3001       C  0.98432316  0.88041723  0.10147122     0.00100
C3002       C  0.00923203  0.87035214  0.07230036    -0.22800
C3003       C  0.02116519  0.83652272  0.07927081    -0.23000
C3004       C  0.00448528  0.82705143  0.11303701     0.00000
H3005       H  0.01498911  0.88487888  0.04693157     0.13800
H3006       H  0.03689011  0.81929855  0.06010948     0.13800
N3007       N  0.62980012  0.76540856  0.12214623    -0.02500
C3008       C  0.66485498  0.75849841  0.13164140     0.00100
C3009       C  0.67072694  0.72190863  0.13669975    -0.22800
C3010       C  0.63599805  0.70700445  0.14069647    -0.23000
C3011       C  0.61175539  0.73420429  0.13323607     0.00000
H3012       H  0.69639092  0.70923260  0.14366516     0.13800
H3013       H  0.62816376  0.67988114  0.14926650     0.13800
O3014       O  0.74410379  0.64596688  0.43644622    -0.70800
O3015       O  0.74164180  0.65143596  0.03552934    -0.71000
O3016       O  0.79290335  0.63449334  0.48008687    -0.70900
O3017       O  0.69178780  0.66354018  0.99069585    -0.70900
O3018       O  0.67415712  0.60828115  0.98983871    -0.70900
O3019       O  0.77606411  0.57984421  0.49625788    -0.70900
O3020       O  0.71609597  0.59879106  0.04304889    -0.70800
O3021       O  0.73387290  0.58862324  0.44455565    -0.71000
V3022       V  0.74217598  0.64828297  0.48593171     1.35200
V3023       V  0.72539139  0.59500979  0.49340828     1.35200
C3024       C  0.74297533  0.61526066  0.42401370     0.78400
C3025       C  0.72710946  0.62652315  0.05619492     0.78500
C3026       C  0.80182985  0.60265335  0.48808142     0.78300
C3027       C  0.66587953  0.64146168  0.99090148     0.78300
N3028       N  0.83938229  0.59517298  0.49463707    -0.02500
C3029       C  0.85205232  0.56136249  0.49886286     0.00100
C3030       C  0.85508424  0.55488999  0.53482969    -0.22800
C3031       C  0.85637292  0.58796799  0.54918046    -0.23000
C3032       C  0.84728858  0.61170830  0.02304051     0.00000
H3033       H  0.86462571  0.53013489  0.54663777     0.13800
H3034       H  0.86543033  0.59324126  0.07431969     0.13800
O3035       O  0.73127813  0.96437769  0.15232641    -0.70800
O3036       O  0.74702897  0.56468854  0.14850841    -0.71000
O3037       O  0.68563513  0.52426614  0.15530756    -0.70900
O3038       O  0.79066929  0.50515362  0.14783144    -0.70900
O3039       O  0.79526950  0.49939844  0.09098874    -0.70900
O3040       O  0.68791255  0.52836484  0.09815987    -0.70900
O3041       O  0.75536657  0.56351638  0.09102222    -0.70800
O3042       O  0.73135849  0.96429426  0.09524661    -0.71000
V3043       V  0.73856667  0.51454958  0.14979052     1.35200
V3044       V  0.74203266  0.51429210  0.09477477     1.35200
C3045       C  0.73404618  0.94693951  0.12411930     0.78400
C3046       C  0.75313865  0.58158461  0.11867799     0.78500
C3047       C  0.66825780  0.53095161  0.12887147     0.78300
C3048       C  0.81049290  0.49595719  0.11951779     0.78300
N3049       N  0.84767984  0.97929145  0.12163437    -0.02500
C3050       C  0.85674348  0.94533619  0.11018012     0.00100
C3051       C  0.85547476  0.92125999  0.13913626    -0.22800
C3052       C  0.85942711  0.94105136  0.16711058    -0.23000
C3053       C  0.85749205  0.47600843  0.15502750     0.00000
H3054       H  0.85943494  0.89240896  0.13953326     0.13800
H3055       H  0.86435073  0.93065070  0.19301122     0.13800
N3056       N  0.74843573  0.62036012  0.11624451    -0.02500
C3057       C  0.73439929  0.63594880  0.14703254     0.00100
C3058       C  0.69569925  0.64104479  0.14825618    -0.22800
C3059       C  0.68808852  0.63873818  0.11400631    -0.23000
C3060       C  0.72216620  0.63027071  0.09469306     0.00000
H3061       H  0.67628217  0.65056014  0.17024263     0.13800
H3062       H  0.66149340  0.64432757  0.10386669     0.13800
O3063       O  0.65101909  0.96063604  0.24211831    -0.70800
O3064       O  0.64044978  0.55617355  0.27977031    -0.71000
O3065       O  0.65163495  0.98812561  0.30802441    -0.70900
O3066       O  0.64200115  0.52616767  0.21461283    -0.70900
O3067       O  0.58150794  0.51930533  0.22627310    -0.70900
O3068       O  0.59133441  0.97904169  0.31869079    -0.70900
O3069       O  0.58053882  0.54590596  0.29113464    -0.70800
O3070       O  0.59039669  0.95330152  0.25281440    -0.71000
V3071       V  0.64528549  0.00757803  0.26168461     1.35200
V3072       V  0.58723050  0.99991987  0.27217569     1.35200
C3073       C  0.62209198  0.94266052  0.23785169     0.78400
C3074       C  0.60744591  0.56725626  0.29188203     0.78500
C3075       C  0.62370609  0.97588205  0.32895632     0.78300
C3076       C  0.61031975  0.52538188  0.20350333     0.78300
N3077       N  0.62953491  0.95519263  0.36138653    -0.02500
C3078       C  0.60907589  0.92496847  0.37008281     0.00100
C3079       C  0.63278281  0.89488412  0.36385293    -0.22800
C3080       C  0.66872461  0.90651408  0.36257215    -0.23000
C3081       C  0.66526979  0.94313887  0.36414773     0.00000
H3082       H  0.62568539  0.86681905  0.36656601     0.13800
H3083       H  0.69423215  0.89005663  0.36266752     0.13800
O3084       O  0.93056963  0.66195728  0.28118877    -0.70800
O3085       O  0.52690648  0.63035108  0.28901470    -0.71000
O3086       O  0.98764390  0.63781718  0.23546941    -0.70900
O3087       O  0.97154228  0.65449276  0.33519431    -0.70900
O3088       O  0.93907513  0.60582348  0.34391140    -0.70900
O3089       O  0.98201869  0.58117856  0.25079307    -0.70900
O3090       O  0.50527049  0.58120508  0.31659934    -0.70800
O3091       O  0.91557183  0.60628117  0.27799973    -0.71000
V3092       V  0.97911891  0.64551260  0.28558313     1.35200
V3093       V  0.96061432  0.59384304  0.29717180     1.35200
C3094       C  0.91047772  0.63911649  0.26980910     0.78400
C3095       C  0.53148802  0.60345969  0.30943237     0.78500
C3096       C  0.98859338  0.60558949  0.22624287     0.78300
C3097       C  0.95224748  0.63293537  0.35670786     0.78300
N3098       N  0.94711864  0.63783739  0.39467895    -0.02500
C3099       C  0.92530012  0.61692307  0.41963039     0.00100
C3100       C  0.92935074  0.62814838  0.45306074    -0.22800
C3101       C  0.95745261  0.65237373  0.44919313    -0.23000
C3102       C  0.96677475  0.65972388  0.41335772     0.00000
H3103       H  0.92059481  0.61354012  0.47778516     0.13800
H3104       H  0.96876708  0.66457659  0.47075714     0.13800
N3105       N  0.59849527  0.60126744  0.30920991    -0.02500
C3106       C  0.61183145  0.63579625  0.30395113     0.00100
C3107       C  0.58653608  0.65828260  0.32382296    -0.22800
C3108       C  0.56154940  0.63709047  0.34490174    -0.23000
C3109       C  0.56398971  0.60480226  0.32862664     0.00000
H3110       H  0.58862733  0.68696981  0.32591431     0.13800
H3111       H  0.53724005  0.64730905  0.36169413     0.13800
N3112       N  0.50791254  0.61300991  0.15767059    -0.02500
C3113       C  0.51366374  0.58679521  0.13302241     0.00100
C3114       C  0.50134064  0.55405919  0.14810626    -0.22800
C3115       C  0.49105633  0.55848306  0.18316048    -0.23000
C3116       C  0.49559532  0.59427577  0.18916774     0.00000
H3117       H  0.50053673  0.52896243  0.13508536     0.13800
H3118       H  0.48119296  0.53736100  0.20246457     0.13800
N3119       N  0.62696693  0.53807798  0.13458124    -0.02500
C3120       C  0.60398397  0.53277547  0.10893478     0.00100
C3121       C  0.57567022  0.50901489  0.12209954    -0.22800
C3122       C  0.57565464  0.50534974  0.15734594    -0.23000
C3123       C  0.60533598  0.52483098  0.16517999     0.00000
H3124       H  0.55335930  0.49948561  0.10844690     0.13800
H3125       H  0.55503891  0.49073835  0.17569549     0.13800
N3126       N  0.61272397  0.66602177  0.02937676    -0.02500
C3127       C  0.57736890  0.65283302  0.03113924     0.00100
C3128       C  0.56626172  0.65922889  0.99745988    -0.22800
C3129       C  0.59931664  0.65254181  0.97550182    -0.23000
C3130       C  0.62718372  0.65462860  0.99722739     0.00000
H3131       H  0.53877490  0.65338779  0.99020899     0.13800
H3132       H  0.60138149  0.64174850  0.94942307     0.13800
C3133       C  0.68906358  0.70220709  0.30591049     0.87400
C3134       C  0.71945554  0.67609642  0.31549692    -0.52800
C3135       C  0.70736739  0.64492034  0.33171143     0.10400
C3136       C  0.66380725  0.64460965  0.34063506     0.21300
C3137       C  0.66413391  0.67862754  0.28488259    -0.53500
C3138       C  0.65099120  0.64735468  0.30374835     0.10500
C3139       C  0.66345876  0.71086525  0.33855213    -0.53000
C3140       C  0.64866996  0.68198337  0.35685805     0.11000
H3141       H  0.74899143  0.68173591  0.30741347     0.15600
H3142       H  0.65351109  0.62035818  0.35684642     0.01300
H3143       H  0.65111004  0.68908634  0.26218383     0.15900
H3144       H  0.65805276  0.73822249  0.34717140     0.15700
C3145       C  0.76703311  0.69890387  0.21371789     0.87400
C3146       C  0.78377084  0.72393873  0.18359444    -0.52800
C3147       C  0.80311099  0.70866067  0.15495113     0.10400
C3148       C  0.80043539  0.66672788  0.15836006     0.21300
C3149       C  0.73978342  0.67663205  0.19694161    -0.53500
C3150       C  0.75689692  0.65878976  0.16767885     0.10500
C3151       C  0.79701719  0.67105006  0.22214899    -0.53000
C3152       C  0.81689612  0.65558435  0.19330992     0.11000
H3153       H  0.78240525  0.75258275  0.18694186     0.15600
H3154       H  0.81454257  0.65281783  0.13478696     0.01300
H3155       H  0.71020090  0.67466107  0.20766422     0.15900
H3156       H  0.80650191  0.66883147  0.24824038     0.15700
C3157       C  0.80385833  0.78282597  0.30426162     0.87400
C3158       C  0.82900186  0.75216501  0.31710701    -0.52800
C3159       C  0.86209071  0.76243864  0.32852493     0.10400
C3160       C  0.86643438  0.80353994  0.32598837     0.21300
C3161       C  0.79782265  0.80738116  0.33790969    -0.53500
C3162       C  0.83117150  0.81765742  0.35013178     0.10500
C3163       C  0.83174059  0.80249485  0.27581817    -0.53000
C3164       C  0.86147900  0.81854994  0.28764972     0.11000
H3165       H  0.81914761  0.72477701  0.31945904     0.15600
H3166       H  0.89431137  0.81000060  0.33321837     0.01300
H3167       H  0.77004525  0.81620578  0.35003400     0.15900
H3168       H  0.82300652  0.81096015  0.25030789     0.15700
C3169       C  0.70632999  0.79686594  0.20967247     0.87400
C3170       C  0.73748389  0.81540602  0.18564699    -0.52800
C3171       C  0.72821220  0.83012117  0.15418434     0.10400
C3172       C  0.68623524  0.82330988  0.14945814     0.21300
C3173       C  0.67290144  0.82424432  0.21458402    -0.53500
C3174       C  0.66155784  0.83764676  0.18314630     0.10500
C3175       C  0.69369006  0.76925752  0.18532032    -0.53000
C3176       C  0.68250049  0.78257328  0.15437707     0.11000
H3177       H  0.76543722  0.81566129  0.19352245     0.15600
H3178       H  0.67802267  0.83399956  0.12376078     0.01300
H3179       H  0.65997480  0.83268143  0.24045950     0.15900
H3180       H  0.69366090  0.74095463  0.19084975     0.15700
C3181       C  0.76810642  0.76925027  0.28605035     0.87400
C3182       C  0.73475676  0.75197592  0.31018144    -0.52800
C3183       C  0.70878813  0.73588197  0.29172524     0.10400
C3184       C  0.71692515  0.74024467  0.25257542     0.21300
C3185       C  0.78243767  0.73907068  0.26062647    -0.53500
C3186       C  0.75561725  0.72293196  0.24435551     0.10500
C3187       C  0.74764698  0.79608201  0.26156460    -0.53000
C3188       C  0.72120351  0.78049423  0.24336305     0.11000
H3189       H  0.73533887  0.74704173  0.33850474     0.15600
H3190       H  0.69480891  0.72713694  0.24117261     0.01300
H3191       H  0.81231262  0.73230862  0.25429572     0.15900
H3192       H  0.75566439  0.82396174  0.25677965     0.15700
C3193       C  0.54454775  0.55449066  0.53900453     0.87400
C3194       C  0.55886792  0.58902353  0.52122309    -0.52800
C3195       C  0.57153144  0.61326968  0.54357763     0.10400
C3196       C  0.57327619  0.59630045  0.58225193     0.21300
C3197       C  0.57955363  0.53866155  0.55350683    -0.53500
C3198       C  0.59386443  0.55784761  0.57840755     0.10500
C3199       C  0.51665497  0.56830651  0.57108450    -0.53000
C3200       C  0.53135365  0.58852526  0.59465184     0.11000
H3201       H  0.55696918  0.59426135  0.99364947     0.15600
H3202       H  0.58575365  0.61423449  0.59992683     0.01300
H3203       H  0.58801721  0.01057141  0.54981859     0.15900
H3204       H  0.98762207  0.56173608  0.57671874     0.15700
C3205       C  0.94905312  0.53048122  0.95451915     0.87400
C3206       C  0.93145015  0.50296513  0.93384940    -0.52800
C3207       C  0.89903565  0.51524066  0.92105429     0.10400
C3208       C  0.88725241  0.55404435  0.93195750     0.21300
C3209       C  0.95550153  0.56155612  0.92785938    -0.53500
C3210       C  0.92312197  0.57703632  0.91829719     0.10500
C3211       C  0.91782700  0.54011535  0.98379296    -0.53000
C3212       C  0.88453318  0.55049446  0.97283860     0.11000
H3213       H  0.94553190  0.97790357  0.92696319     0.15600
H3214       H  0.86099495  0.56457591  0.92204222     0.01300
H3215       H  0.98264495  0.57484263  0.92304908     0.15900
H3216       H  0.92256543  0.53884255  0.51170225     0.15700
C3217       C  0.94952551  0.95627283  0.54748891     0.87400
C3218       C  0.97133836  0.93744937  0.57527050    -0.52800
C3219       C  0.95488991  0.90875819  0.59355216     0.10400
C3220       C  0.91451223  0.90294809  0.58262112     0.21300
C3221       C  0.93693695  0.92720374  0.52463475    -0.53500
C3222       C  0.91916889  0.89946391  0.54238393     0.10500
C3223       C  0.91278655  0.96850849  0.56904094    -0.53000
C3224       C  0.89292307  0.94041832  0.58666639     0.11000
H3225       H  0.00103156  0.94286290  0.57627454     0.15600
H3226       H  0.90062045  0.87908093  0.59640999     0.01300
H3227       H  0.94081830  0.92636933  0.49631369     0.15900
H3228       H  0.90415267  0.49640868  0.57121768     0.15700
C3229       C  0.54245969  0.94007693  0.95920515     0.87400
C3230       C  0.56669243  0.91565151  0.97994027    -0.52800
C3231       C  0.58587317  0.88972881  0.96058686     0.10400
C3232       C  0.57187854  0.88631177  0.92338163     0.21300
C3233       C  0.56641992  0.95100044  0.92291238    -0.53500
C3234       C  0.58176095  0.92241614  0.90371416     0.10500
C3235       C  0.51354941  0.91287676  0.94946541    -0.53000
C3236       C  0.52836964  0.88740426  0.92629145     0.11000
H3237       H  0.57346892  0.92333354  0.50462045     0.15600
H3238       H  0.58340697  0.86167747  0.91049100     0.01300
H3239       H  0.57135300  0.97877304  0.91387957     0.15900
H3240       H  0.98277021  0.91885655  0.94959731     0.15700
C3241       C  0.52509717  0.52691371  0.51651269     0.87400
C3242       C  0.00247931  0.54479418  0.48906139    -0.52800
C3243       C  0.98283209  0.52035866  0.97188441     0.10400
C3244       C  0.98595747  0.98239138  0.98652463     0.21300
C3245       C  0.99622006  0.00550581  0.54196525    -0.53500
C3246       C  0.97485586  0.98342763  0.52620107     0.10500
C3247       C  0.54914583  0.99673503  0.49547207    -0.53000
C3248       C  0.52819949  0.97308989  0.98036921     0.11000
H3249       H  0.99778861  0.57335157  0.98518621     0.15600
H3250       H  0.96888451  0.96599354  0.97335608     0.01300
H3251       H  0.99433448  0.00495617  0.57070054     0.15900
H3252       H  0.57974312  0.99429650  0.49296672     0.15700
N3253       N  0.88502332  0.88322007  0.76501319    -0.02500
C3254       C  0.85890172  0.85832735  0.78021127     0.00100
C3255       C  0.82354346  0.87482273  0.78733075    -0.22800
C3256       C  0.82670527  0.90945007  0.77762144    -0.23000
C3257       C  0.86411673  0.91561927  0.76517449     0.00000
H3258       H  0.79686232  0.86287732  0.79745319     0.13800
H3259       H  0.80303266  0.92841995  0.77952472     0.13800
N3260       N  0.80820399  0.86528011  0.89618579    -0.02500
C3261       C  0.83656989  0.84378545  0.87943553     0.00100
C3262       C  0.86773796  0.86556650  0.86899703    -0.22800
C3263       C  0.85350287  0.89937562  0.86480342    -0.23000
C3264       C  0.81635494  0.89783541  0.87899993     0.00000
H3265       H  0.89576317  0.85828932  0.85683485     0.13800
H3266       H  0.86789073  0.92190005  0.85059475     0.13800
N3267       N  0.74438820  0.87998918  0.60836247    -0.02500
C3268       C  0.75633960  0.85337646  0.63046242     0.00100
C3269       C  0.78416655  0.86710561  0.64810596    -0.22800
C3270       C  0.77593019  0.90262869  0.64952992    -0.23000
C3271       C  0.75113491  0.91020639  0.62561270     0.00000
H3272       H  0.80158348  0.85333980  0.66586312     0.13800
H3273       H  0.78528610  0.92082777  0.66777642     0.13800
N3274       N  0.86579045  0.71620735  0.61738711    -0.02500
C3275       C  0.83300486  0.73127634  0.63284648     0.00100
C3276       C  0.84047163  0.76600420  0.64254865    -0.22800
C3277       C  0.87872791  0.76784979  0.64157857    -0.23000
C3278       C  0.89315348  0.73594940  0.62822433     0.00000
H3279       H  0.82098652  0.78588181  0.65477644     0.13800
H3280       H  0.89391557  0.78854572  0.65247773     0.13800
O3281       O  0.79309421  0.83732676  0.95534240    -0.70800
O3282       O  0.75935063  0.84623793  0.55611911    -0.71000
O3283       O  0.72824032  0.85107017  0.99737395    -0.70900
O3284       O  0.82701727  0.83077355  0.51626149    -0.70900
O3285       O  0.84099749  0.88708652  0.51127141    -0.70900
O3286       O  0.74111773  0.90778361  0.99376342    -0.70900
O3287       O  0.77329468  0.90274411  0.55174027    -0.70800
O3288       O  0.80552468  0.89407529  0.95183050    -0.71000
V3289       V  0.77725645  0.84255041  0.50605442     1.35200
V3290       V  0.78972756  0.89697864  0.50204215     1.35200
C3291       C  0.80198207  0.86535007  0.93565346     0.78400
C3292       C  0.75864466  0.87651041  0.57067334     0.78500
C3293       C  0.71766403  0.88310079  0.99256137     0.74300
C3294       C  0.85140967  0.85466915  0.51684644     0.78300
O3295       O  0.85143910  0.72318364  0.96248080    -0.70800
O3296       O  0.84119853  0.72169420  0.56315133    -0.71000
O3297       O  0.86034575  0.77116213  0.51022233    -0.70900
O3298       O  0.83230466  0.67389059  0.51667456    -0.70900
O3299       O  0.89132902  0.65788840  0.51585722    -0.70900
O3300       O  0.91894503  0.75369469  0.50911329    -0.70900
O3301       O  0.90017862  0.70501051  0.56184832    -0.70800
O3302       O  0.91038951  0.70751024  0.96107422    -0.71000
V3303       V  0.84725703  0.72223723  0.51300599     1.35200
V3304       V  0.90395036  0.70638929  0.51171684     1.35200
C3305       C  0.88320746  0.71716631  0.94447824     0.78400
C3306       C  0.86883823  0.71278828  0.57968350     0.78500
C3307       C  0.89476856  0.77873717  0.50798516     0.78300
C3308       C  0.85718440  0.64957159  0.51940062     0.78300
N3309       N  0.89067050  0.84446876  0.51968420    -0.02500
C3310       C  0.91984410  0.86604725  0.52355961     0.00100
C3311       C  0.95395406  0.85229251  0.50772675    -0.22800
C3312       C  0.94685358  0.82004006  0.49580124    -0.23000
C3313       C  0.90854046  0.81513350  0.50465459     0.00000
H3314       H  0.98141285  0.86412481  0.50556820     0.13800
H3315       H  0.96795111  0.80084064  0.48451900     0.13800
N3316       N  0.89679950  0.74615006  0.88187005    -0.02500
C3317       C  0.88703106  0.71756593  0.90518382     0.00100
C3318       C  0.87401271  0.68945523  0.88850858    -0.22800
C3319       C  0.87389532  0.70065593  0.85394356    -0.23000
C3320       C  0.88374149  0.73665699  0.85108336     0.00000
H3321       H  0.86333618  0.66428626  0.90076138     0.13800
H3322       H  0.86197052  0.68560240  0.83460078     0.13800
N3323       N  0.61259990  0.88215927  0.71029557    -0.02500
C3324       C  0.63362819  0.86840628  0.68078204     0.00100
C3325       C  0.64835063  0.89618378  0.65794843    -0.22800
C3326       C  0.64578486  0.92603846  0.67725650    -0.23000
C3327       C  0.62634035  0.91650914  0.70979450     0.00000
H3328       H  0.66703362  0.89398772  0.63328748     0.13800
H3329       H  0.65851855  0.95163183  0.66917410     0.13800
O3330       O  0.98855256  0.89498225  0.67603829    -0.70800
O3331       O  0.50319020  0.90732562  0.77503582    -0.71000
O3332       O  0.54995467  0.90453745  0.71427947    -0.70900
O3333       O  0.94342447  0.90461138  0.73864815    -0.70900
O3334       O  0.94283049  0.84717904  0.75059971    -0.70900
O3335       O  0.55482343  0.84683551  0.72325429    -0.70900
O3336       O  0.50660960  0.84958061  0.78487760    -0.70800
O3337       O  0.99039028  0.83757523  0.68775387    -0.71000
V3338       V  0.99611080  0.90113742  0.72559385     1.35200
V3339       V  0.99803382  0.84581064  0.73558539     1.35200
C3340       C  0.98646951  0.86308222  0.66527339     0.78400
C3341       C  0.50651363  0.88035727  0.79679892     0.78500
C3342       C  0.57126849  0.87726103  0.71639421     0.78300
C3343       C  0.92491334  0.87771541  0.75093589     0.78300
O3344       O  0.56358993  0.73785298  0.86462913    -0.70800
O3345       O  0.95858422  0.76086968  0.85394325    -0.71000
O3346       O  0.52293795  0.80307867  0.84736006    -0.70900
O3347       O  0.99671667  0.70286643  0.87021585    -0.70900
O3348       O  0.99181282  0.71411727  0.92598083    -0.70900
O3349       O  0.50710083  0.81348949  0.90304619    -0.70900
O3350       O  0.94674443  0.76758315  0.91068001    -0.70800
O3351       O  0.55376564  0.75501903  0.91871208    -0.71000
V3352       V  0.51124294  0.75238913  0.85957994     1.35200
V3353       V  0.50090570  0.76295997  0.91316931     1.35200
C3354       C  0.57561958  0.73905686  0.89476014     0.78400
C3355       C  0.93440219  0.76119812  0.88172827     0.78500
C3356       C  0.51584297  0.82608427  0.87148286     0.78300
C3357       C  0.98705766  0.69270232  0.90225843     0.78300
N3358       N  0.51512802  0.86546775  0.86463473    -0.02500
C3359       C  0.51114652  0.88932776  0.89175966     0.00100
C3360       C  0.50036484  0.92318448  0.87931488    -0.22800
C3361       C  0.49915879  0.92178799  0.84441386    -0.23000
C3362       C  0.50780722  0.88699691  0.83508515     0.00000
H3363       H  0.49761628  0.94796568  0.89327887     0.13800
H3364       H  0.49315491  0.94465862  0.82726011     0.13800
N3365       N  0.61177397  0.72150746  0.90258300    -0.02500
C3366       C  0.62799903  0.68824291  0.89212802     0.00100
C3367       C  0.65494147  0.67731711  0.91335302    -0.22800
C3368       C  0.66142882  0.70601217  0.93156880    -0.23000
C3369       C  0.63347210  0.73130787  0.92742494     0.00000
H3370       H  0.67414348  0.65419537  0.91036168     0.13800
H3371       H  0.68432909  0.70817900  0.94713080     0.13800
N3372       N  0.87072103  0.62950091  0.72120669    -0.02500
C3373       C  0.85744921  0.65201205  0.69610511     0.00100
C3374       C  0.87391055  0.68527061  0.69774657    -0.22800
C3375       C  0.89267429  0.68450302  0.72639215    -0.23000
C3376       C  0.88921108  0.65038498  0.74106937     0.00000
H3377       H  0.86382281  0.71055633  0.68802451     0.13800
H3378       H  0.90537980  0.70723818  0.73666522     0.13800
O3379       O  0.84476339  0.97670690  0.76399936    -0.70800
O3380       O  0.84034944  0.57417582  0.73207342    -0.71000
O3381       O  0.83264746  0.01011037  0.70389879    -0.70900
O3382       O  0.85361202  0.53877300  0.79264380    -0.70900
O3383       O  0.91248583  0.52527349  0.77641638    -0.70900
O3384       O  0.89189278  0.51472867  0.68326123    -0.70900
O3385       O  0.90171802  0.57238918  0.72150659    -0.70800
O3386       O  0.90208337  0.96866188  0.73868490    -0.71000
V3387       V  0.84378178  0.52510270  0.74764312     1.35200
V3388       V  0.90126523  0.52101456  0.72995436     1.35200
C3389       C  0.87228809  0.95503054  0.75561594     0.78400
C3390       C  0.87076339  0.59068216  0.72383463     0.78500
C3391       C  0.85934801  0.50452042  0.67975314     0.78300
C3392       C  0.88549473  0.52941206  0.80102546     0.78300
O3393       O  0.70570299  0.47358524  0.89574706    -0.70800
O3394       O  0.80561732  0.50771964  0.89976636    -0.71000
O3395       O  0.73590854  0.53858996  0.89657908    -0.70900
O3396       O  0.77328943  0.94308193  0.90267924    -0.70900
O3397       O  0.79070303  0.94608727  0.84570361    -0.70900
O3398       O  0.74248241  0.53891416  0.83898069    -0.70900
O3399       O  0.81216426  0.51306923  0.84250123    -0.70800
O3400       O  0.72047649  0.96994455  0.83867896    -0.71000
V3401       V  0.75504181  0.49108720  0.89770663     1.35200
V3402       V  0.76569861  0.49194775  0.84248785     1.35200
C3403       C  0.69758774  0.96421944  0.86611204     0.78400
C3404       C  0.82666029  0.51474553  0.87052598     0.78500
C3405       C  0.73369792  0.55562166  0.86744762     0.78300
C3406       C  0.79099191  0.92934176  0.87563293     0.78300
N3407       N  0.86726384  0.51817320  0.86814604    -0.02500
C3408       C  0.88513056  0.49773857  0.89145015     0.00100
C3409       C  0.90970133  0.47337362  0.87322240    -0.22800
C3410       C  0.91537983  0.48606289  0.83908342    -0.23000
C3411       C  0.89041871  0.51463646  0.83666773     0.00000
H3412       H  0.92596692  0.45165970  0.88398344     0.13800
H3413       H  0.93434246  0.47451070  0.81775370     0.13800
N3414       N  0.72820479  0.59427544  0.86735818    -0.02500
C3415       C  0.73466393  0.61402369  0.83666214     0.00100
C3416       C  0.77287499  0.62317883  0.83157276    -0.22800
C3417       C  0.78219898  0.62500689  0.86513514    -0.23000
C3418       C  0.75218600  0.60968311  0.88634850     0.00000
H3419       H  0.78815632  0.63689081  0.80854952     0.13800
H3420       H  0.80567421  0.63894171  0.87317490     0.13800
O3421       O  0.60601791  0.82679505  0.50686614    -0.70800
O3422       O  0.59015977  0.72704168  0.53539460    -0.71000
O3423       O  0.59923663  0.78542486  0.57181277    -0.70900
O3424       O  0.59704406  0.76430576  0.97379648    -0.70900
O3425       O  0.65818895  0.76576197  0.96669270    -0.70900
O3426       O  0.65920660  0.77179774  0.56414221    -0.70900
O3427       O  0.65064410  0.71781895  0.52307262    -0.70800
O3428       O  0.66608397  0.81812257  0.50769633    -0.71000
V3429       V  0.59887539  0.77681370  0.52210881     1.35200
V3430       V  0.65714237  0.76860739  0.51575575     1.35200
C3431       C  0.63944921  0.83880033  0.50044514     0.78400
C3432       C  0.61790621  0.70487264  0.53139549     0.78500
C3433       C  0.62933701  0.77688964  0.58513681     0.78300
C3434       C  0.62824118  0.75821155  0.95474807     0.78300
N3435       N  0.64858707  0.87340488  0.98334347    -0.02500
C3436       C  0.62677499  0.89319406  0.96253843     0.00100
C3437       C  0.64455329  0.92509465  0.95052785    -0.22800
C3438       C  0.67814006  0.92481490  0.96272500    -0.23000
C3439       C  0.68096505  0.89284173  0.98152429     0.00000
H3440       H  0.63373667  0.94813746  0.93667478     0.13800
H3441       H  0.69881728  0.94579645  0.95802865     0.13800
O3442       O  0.00243332  0.76557655  0.59805747    -0.70800
O3443       O  0.51081608  0.66490538  0.61749014    -0.71000
O3444       O  0.95384434  0.71216320  0.60654349    -0.70900
O3445       O  0.55890908  0.72057338  0.60674339    -0.70900
O3446       O  0.55032872  0.72713819  0.66381592    -0.70900
O3447       O  0.94430587  0.72655559  0.66179075    -0.70900
O3448       O  0.49824487  0.67419354  0.67373232    -0.70800
O3449       O  0.99702786  0.77578373  0.65430440    -0.71000
V3450       V  0.00627272  0.71557973  0.60854309     1.35200
V3451       V  0.99734576  0.72492509  0.66271718     1.35200
C3452       C  0.00014507  0.78787157  0.62257308     0.78400
C3453       C  0.50607639  0.65201964  0.64930913     0.78500
C3454       C  0.93157431  0.72289657  0.63261031     0.78300
C3455       C  0.57194791  0.72779940  0.63457738     0.78300
N3456       N  0.98357101  0.85500895  0.62810374    -0.02500
C3457       C  0.98347367  0.87979353  0.60020325     0.00100
C3458       C  0.00806614  0.86920693  0.57105006    -0.22800
C3459       C  0.01986669  0.83544950  0.57838059    -0.23000
C3460       C  0.00339661  0.82647609  0.61233293     0.00000
H3461       H  0.01403051  0.88351787  0.54559873     0.13800
H3462       H  0.03564451  0.81798032  0.55946874     0.13800
N3463       N  0.62963825  0.76595789  0.62211029    -0.02500
C3464       C  0.66480074  0.75914369  0.63142256     0.00100
C3465       C  0.67090715  0.72256843  0.63622934    -0.22800
C3466       C  0.63624216  0.70752607  0.64033678    -0.23000
C3467       C  0.61183026  0.73463430  0.63314750     0.00000
H3468       H  0.69666921  0.70999826  0.64310601     0.13800
H3469       H  0.62848784  0.68036980  0.64882068     0.13800
O3470       O  0.74423152  0.64528849  0.93625140    -0.70800
O3471       O  0.74210493  0.65207718  0.53556660    -0.71000
O3472       O  0.79271873  0.63410335  0.98020456    -0.70900
O3473       O  0.69184177  0.66416908  0.49111699    -0.70900
O3474       O  0.67428283  0.60889134  0.49019136    -0.70900
O3475       O  0.77597605  0.57937611  0.99618439    -0.70900
O3476       O  0.71640555  0.59950060  0.54320424    -0.70800
O3477       O  0.73394177  0.58795662  0.94435789    -0.71000
V3478       V  0.74201968  0.64768147  0.98579983     1.35200
V3479       V  0.72527597  0.59438766  0.99321173     1.35200
C3480       C  0.74309404  0.61457091  0.92380977     0.78400
C3481       C  0.72752145  0.62723358  0.55626150     0.78500
C3482       C  0.80168540  0.60228868  0.98813172     0.78300
C3483       C  0.66593802  0.64203691  0.49133003     0.78300
N3484       N  0.83922328  0.59491347  0.99469038    -0.02500
C3485       C  0.85180011  0.56108453  0.99887598     0.00100
C3486       C  0.85473752  0.55452130  0.03483337    -0.22800
C3487       C  0.85594507  0.58755398  0.04929653    -0.23000
C3488       C  0.84754094  0.61201921  0.52290822     0.00000
H3489       H  0.86423474  0.52972580  0.04661018     0.13800
H3490       H  0.86593751  0.59374445  0.57413293     0.13800
O3491       O  0.73185098  0.96439223  0.65255289    -0.70800
O3492       O  0.74623012  0.56510392  0.64866915    -0.71000
O3493       O  0.68510101  0.52433274  0.65527869    -0.70900
O3494       O  0.79021707  0.50594376  0.64806609    -0.70900
O3495       O  0.79501324  0.49996255  0.59124922    -0.70900
O3496       O  0.68748365  0.52855468  0.59813807    -0.70900
O3497       O  0.75486914  0.56392912  0.59118650    -0.70800
O3498       O  0.73144738  0.96448196  0.59552240    -0.71000
V3499       V  0.73807393  0.51494287  0.64989719     1.35200
V3500       V  0.74169497  0.51466649  0.59488109     1.35200
C3501       C  0.73442637  0.94705187  0.62428992     0.78400
C3502       C  0.75259717  0.58197948  0.61885497     0.78500
C3503       C  0.66775338  0.53104690  0.62883389     0.78300
C3504       C  0.81017121  0.49670068  0.61983307     0.78300
N3505       N  0.84768155  0.97980303  0.62254930    -0.02500
C3506       C  0.85707315  0.94602715  0.61078078     0.00100
C3507       C  0.85598782  0.92160958  0.63947941    -0.22800
C3508       C  0.85909192  0.94106707  0.66784738    -0.23000
C3509       C  0.85640483  0.47622155  0.65582394     0.00000
H3510       H  0.86038918  0.89280248  0.63961158     0.13800
H3511       H  0.86380155  0.93044731  0.69374873     0.13800
N3512       N  0.74836388  0.62078696  0.61642765    -0.02500
C3513       C  0.73424923  0.63639448  0.64715883     0.00100
C3514       C  0.69564534  0.64182511  0.64812917    -0.22800
C3515       C  0.68833377  0.63982229  0.61375986    -0.23000
C3516       C  0.72245027  0.63112601  0.59468160     0.00000
H3517       H  0.67619459  0.65136600  0.67007242     0.13800
H3518       H  0.66189180  0.64561182  0.60338907     0.13800
O3519       O  0.65157117  0.96117884  0.74278042    -0.70800
O3520       O  0.64069944  0.55628509  0.77991424    -0.71000
O3521       O  0.65169045  0.98870097  0.80861086    -0.70900
O3522       O  0.64213104  0.52638724  0.71467178    -0.70900
O3523       O  0.58160717  0.52008765  0.72671656    -0.70900
O3524       O  0.59151959  0.97881713  0.81881272    -0.70900
O3525       O  0.58088874  0.54574081  0.79189424    -0.70800
O3526       O  0.59089408  0.95390939  0.75271647    -0.71000
V3527       V  0.64550429  0.00808980  0.76219748     1.35200
V3528       V  0.58747782  0.00023609  0.77257232     1.35200
C3529       C  0.62275001  0.94326876  0.73814742     0.78400
C3530       C  0.60776504  0.56716076  0.79241952     0.78500
C3531       C  0.62380340  0.97588163  0.82922274     0.78300
C3532       C  0.61029673  0.52597891  0.70376345     0.78300
N3533       N  0.62964096  0.95479911  0.86139259    -0.02500
C3534       C  0.60896427  0.92475034  0.87009510     0.00100
C3535       C  0.63227985  0.89449287  0.86329023    -0.22800
C3536       C  0.66840673  0.90574783  0.86171025    -0.23000
C3537       C  0.66526952  0.94235941  0.86364004     0.00000
H3538       H  0.62484733  0.86650785  0.86581665     0.13800
H3539       H  0.69378436  0.88906321  0.86146208     0.13800
O3540       O  0.92933479  0.66193237  0.78166052    -0.70800
O3541       O  0.52786329  0.62981459  0.78874200    -0.71000
O3542       O  0.98658375  0.63792949  0.73580892    -0.70900
O3543       O  0.97047121  0.65472256  0.83558069    -0.70900
O3544       O  0.93849580  0.60576509  0.84438957    -0.70900
O3545       O  0.98090182  0.58130776  0.75116299    -0.70900
O3546       O  0.50584151  0.58100788  0.81668354    -0.70800
O3547       O  0.91444078  0.60619607  0.77878989    -0.71000
V3548       V  0.97800207  0.64571826  0.78594196     1.35200
V3549       V  0.95975235  0.59393746  0.79756705     1.35200
C3550       C  0.90925460  0.63897752  0.77045783     0.78400
C3551       C  0.53211659  0.60320236  0.80959061     0.78500
C3552       C  0.98777045  0.60565962  0.72663373     0.78300
C3553       C  0.95153026  0.63294850  0.85715639     0.78300
N3554       N  0.94666568  0.63762133  0.89517033    -0.02500
C3555       C  0.92499451  0.61652904  0.92006899     0.00100
C3556       C  0.92944020  0.62737942  0.95356389    -0.22800
C3557       C  0.95764162  0.65151329  0.94970168    -0.23000
C3558       C  0.96659521  0.65922265  0.91388649     0.00000
H3559       H  0.92072833  0.61269303  0.97824910     0.13800
H3560       H  0.96913118  0.66353921  0.97125474     0.13800
N3561       N  0.59891732  0.60111668  0.80977755    -0.02500
C3562       C  0.61202063  0.63562708  0.80368916     0.00100
C3563       C  0.58668106  0.65841192  0.82316222    -0.22800
C3564       C  0.56189229  0.63742884  0.84476802    -0.23000
C3565       C  0.56438788  0.60481149  0.82906766     0.00000
H3566       H  0.58875465  0.68716833  0.82479450     0.13800
H3567       H  0.53762499  0.64782483  0.86146393     0.13800
N3568       N  0.50756107  0.61319167  0.65713696    -0.02500
C3569       C  0.51239558  0.58708753  0.63236433     0.00100
C3570       C  0.49942629  0.55452513  0.64739390    -0.22800
C3571       C  0.48981273  0.55884713  0.68254888    -0.23000
C3572       C  0.49539412  0.59442337  0.68866764     0.00000
H3573       H  0.49808673  0.52951463  0.63433251     0.13800
H3574       H  0.47985423  0.53777227  0.70186661     0.13800
N3575       N  0.62644906  0.53821990  0.63457165    -0.02500
C3576       C  0.60316440  0.53292551  0.60912303     0.00100
C3577       C  0.57434714  0.50996527  0.62282709    -0.22800
C3578       C  0.57442954  0.50687719  0.65808796    -0.23000
C3579       C  0.60477088  0.52571620  0.66548992     0.00000
H3580       H  0.55178698  0.50059786  0.60941062     0.13800
H3581       H  0.55361031  0.49281669  0.67670443     0.13800
N3582       N  0.61230385  0.66627197  0.52955105    -0.02500
C3583       C  0.57703238  0.65283524  0.53099183     0.00100
C3584       C  0.56621052  0.65917450  0.49721734    -0.22800
C3585       C  0.59946815  0.65259570  0.47554923    -0.23000
C3586       C  0.62712608  0.65499752  0.49746121     0.00000
H3587       H  0.53888124  0.65317914  0.48972735     0.13800
H3588       H  0.60180252  0.64162002  0.44953830     0.13800
C3589       C  0.68898016  0.70203430  0.80573288     0.87400
C3590       C  0.71938310  0.67597978  0.81553008    -0.52800
C3591       C  0.70727059  0.64477179  0.83172541     0.10400
C3592       C  0.66372743  0.64446589  0.84051347     0.21300
C3593       C  0.66427329  0.67837908  0.78462278    -0.53500
C3594       C  0.65109325  0.64717858  0.80355995     0.10500
C3595       C  0.66318487  0.71070551  0.83822928    -0.53000
C3596       C  0.64850434  0.68185206  0.85662680     0.11000
H3597       H  0.74894270  0.68165220  0.80752437     0.15600
H3598       H  0.65339737  0.62023047  0.85673097     0.01300
H3599       H  0.65140006  0.68872128  0.76180079     0.15900
H3600       H  0.65770064  0.73809112  0.84677067     0.15700
C3601       C  0.76698451  0.69921594  0.71378245     0.87400
C3602       C  0.78384297  0.72427632  0.68374884    -0.52800
C3603       C  0.80305352  0.70897779  0.65506083     0.10400
C3604       C  0.80023269  0.66703731  0.65838728     0.21300
C3605       C  0.73965994  0.67707558  0.69698437    -0.53500
C3606       C  0.75671695  0.65925024  0.66771921     0.10500
C3607       C  0.79690847  0.67130677  0.72218191    -0.53000
C3608       C  0.81655995  0.65565894  0.69333424     0.11000
H3609       H  0.78265813  0.75289383  0.68717727     0.15600
H3610       H  0.81427709  0.65312119  0.63478912     0.01300
H3611       H  0.71008432  0.67510428  0.70772779     0.15900
H3612       H  0.80638306  0.66897797  0.74826986     0.15700
C3613       C  0.80337447  0.78266442  0.80467742     0.87400
C3614       C  0.82830020  0.75190237  0.81762890    -0.52800
C3615       C  0.86147024  0.76202768  0.82897938     0.10400
C3616       C  0.86606699  0.80310774  0.82631424     0.21300
C3617       C  0.79748013  0.80727909  0.83829506    -0.53500
C3618       C  0.83092869  0.81739295  0.85045901     0.10500
C3619       C  0.83137331  0.80208633  0.77617468    -0.53000
C3620       C  0.86109460  0.81812473  0.78795952     0.11000
H3621       H  0.81825188  0.72458114  0.82007445     0.15600
H3622       H  0.89399558  0.80944931  0.83351406     0.01300
H3623       H  0.76976361  0.81626079  0.85041433     0.15900
H3624       H  0.82270574  0.81048720  0.75061751     0.15700
C3625       C  0.70642248  0.79711905  0.70960669     0.87400
C3626       C  0.73770384  0.81552400  0.68552231    -0.52800
C3627       C  0.72843718  0.83026322  0.65403032     0.10400
C3628       C  0.68640603  0.82374261  0.64940797     0.21300
C3629       C  0.67323789  0.82470781  0.71454228    -0.53500
C3630       C  0.66194670  0.83820013  0.68312785     0.10500
C3631       C  0.69347307  0.76963094  0.68528159    -0.53000
C3632       C  0.68238335  0.78306743  0.65432784     0.11000
H3633       H  0.76563226  0.81581504  0.69345917     0.15600
H3634       H  0.67818076  0.83454262  0.62374939     0.01300
H3635       H  0.66044641  0.83324738  0.74043254     0.15900
H3636       H  0.69307835  0.74133187  0.69084187     0.15700
C3637       C  0.76770297  0.76926039  0.78632557     0.87400
C3638       C  0.73430488  0.75193705  0.81028460    -0.52800
C3639       C  0.70851989  0.73582432  0.79166018     0.10400
C3640       C  0.71676422  0.74036128  0.75252156     0.21300
C3641       C  0.78217195  0.73915335  0.76087294    -0.53500
C3642       C  0.75546398  0.72309804  0.74443301     0.10500
C3643       C  0.74739228  0.79617105  0.76177438    -0.53000
C3644       C  0.72110638  0.78063355  0.74336742     0.11000
H3645       H  0.73478239  0.74692139  0.83860729     0.15600
H3646       H  0.69471958  0.72726626  0.74102118     0.01300
H3647       H  0.81206132  0.73237932  0.75464524     0.15900
H3648       H  0.75545655  0.82404435  0.75705091     0.15700
loop_ 
_geom_bond_atom_site_label_1 
_geom_bond_atom_site_label_2 
_geom_bond_distance 
_geom_bond_site_symmetry_2 
_ccdc_geom_bond_type 
C1            C2   1.494       .  S
C1            C7   1.565       .  S
C1            C5   1.524       .  S
C1           C49   1.595       .  S
C2            C3   1.391       .  D
C2          H465   1.082   1_554  S
C3            C4   1.581       .  S
C3          C391   1.536       .  S
C4            C8   1.539       .  S
C4            C6   1.594       .  S
C4           H10   1.110       .  S
C5            C6   1.370       .  D
C5          H923   1.087       .  S
C6          C384   1.523       .  S
C7            C8   1.361       .  D
C7         H1836   1.085   1_455  S
C8          C377   1.501       .  S
H9          C458   1.082       .  S
H11         C917   1.087       .  S
H12        C1831   1.085       .  S
C13          C14   1.518       .  S
C13          C19   1.513       .  S
C13          C17   1.504       .  S
C13          C51   1.481       .  S
C14          C15   1.372       .  D
C14         H933   1.077   1_545  S
C15          C16   1.552       .  S
C15         C216   1.473   1_545  S
C16          C20   1.543       .  S
C16          C18   1.576       .  S
C16          H22   1.110       .  S
C17          C18   1.361       .  D
C17          H23   1.090       .  S
C18         C363   1.478       .  S
C19          C20   1.351       .  D
C19         H480   1.086       .  S
C20         C293   1.484       .  S
H21         C926   1.077       .  S
H24         C475   1.086   1_554  S
C25          C26   1.527       .  S
C25          C31   1.521       .  S
C25          C29   1.531       .  S
C25          C54   1.508       .  S
C26          C27   1.351       .  D
C26          H33   1.090       .  S
C27          C28   1.575       .  S
C27         C265   1.499       .  S
C28          C32   1.578       .  S
C28          C30   1.526       .  S
C28          H34   1.105       .  S
C29          C30   1.334       .  D
C29          H35   1.072   1_554  S
C30         C118   1.462       .  S
C31          C32   1.376       .  D
C31         H948   1.078       .  S
C32         C314   1.488       .  S
H36         C943   1.078       .  S
C37          C38   1.505       .  S
C37          C43   1.556       .  S
C37          C41   1.566       .  S
C37          C56   1.537       .  S
C38          C39   1.354       .  D
C38         H501   1.090       .  S
C39          C40   1.572       .  S
C39         C244   1.482       .  S
C40          C44   1.542       .  S
C40          C42   1.533       .  S
C40          H46   1.103       .  S
C41          C42   1.378       .  D
C41          H47   1.086       .  S
C42         C342   1.499       .  S
C43          C44   1.371       .  D
C43        H1872   1.074   1_455  S
C44         C167   1.519       .  S
H45         C494   1.090   1_554  S
H48        C1867   1.074       .  S
C49        C1874   1.537   1_554  S
C49         C967   1.576   1_544  S
C49        C2789   1.540   1_455  S
C50        C1873   1.538   1_556  S
C50         C507   1.373       .  D
C50         H513   1.085       .  S
C51         C964   1.494   1_545  S
C51         C506   1.373       .  D
C52         C963   1.495       .  S
C52        C1880   1.501       .  S
C52         C510   1.523       .  S
C52          H58   1.060       .  S
C53        C2785   1.541       .  S
C53          C54   1.348       .  D
C53          H59   1.084       .  S
C54         C508   1.524   1_554  S
C55         C961   1.575   1_556  S
C55         C512   1.393       .  D
C55          H60   1.085       .  S
C56        C1876   1.502   1_455  S
C56         C511   1.392       .  D
H57         C506   1.085       .  S
N61          C65   1.400       .  A
N61          C62   1.385       .  A
N61         C151   1.465       .  S
C62         C428   1.514       .  S
C62          C63   1.387       .  A
C63          C64   1.328       .  A
C63          H66   1.078       .  S
C64          C65   1.378       .  A
C64          H67   1.083       .  S
C65         C197   1.521       .  S
N68          C72   1.369       .  A
N68          C69   1.378       .  A
N68          C99   1.486       .  S
C69         C426   1.545       .  S
C69          C70   1.398       .  A
C70          C71   1.354       .  A
C70          H73   1.078       .  S
C71          C72   1.365       .  A
C71          H74   1.080       .  S
C72         C214   1.471       .  S
N75          C79   1.371       .  A
N75          C76   1.365       .  A
N75         C100   1.465       .  S
C76         C435   1.507       .  S
C76          C77   1.390       .  A
C77          C78   1.348       .  A
C77          H80   1.079       .  S
C78          C79   1.365       .  A
C78          H81   1.081       .  S
C79         C309   1.482       .  S
N82          C86   1.356       .  A
N82          C83   1.356       .  A
N82         C114   1.434       .  S
C83         C411   1.513       .  S
C83          C84   1.403       .  A
C84          C85   1.364       .  A
C84          H87   1.079       .  S
C85          C86   1.373       .  A
C85          H88   1.082       .  S
C86         C262   1.469       .  S
O89          C99   1.277       .  A
O89         V553   1.958       .  S
O90         C100   1.276       .  A
O90          V97   1.935       .  S
O91         C101   1.253       .  A
O91         V553   1.883       .  S
O92         C102   1.265       .  A
O92          V97   1.902       .  S
O93         C102   1.269       .  A
O93          V98   1.931       .  S
O94         C101   1.266       .  A
O94         V554   1.879       .  S
O95         C100   1.268       .  A
O95          V98   1.922       .  S
O96          C99   1.275       .  A
O96         V554   1.930       .  S
V97         O545   1.961   1_554  S
V97         O547   1.881   1_554  S
V97          V98   2.081       .  T
V98         O550   1.879   1_554  S
V98         O552   1.930   1_554  S
C101        C247   1.459       .  S
C102        N117   1.458       .  S
O103        C113   1.264       .  A
O103        V567   1.908       .  S
O104        C114   1.266       .  A
O104        V111   1.888       .  S
O105        C115   1.259       .  A
O105        V111   1.887       .  S
O106        C116   1.261       .  A
O106        V111   1.886       .  S
O107        C116   1.254       .  A
O107        V112   1.867       .  S
O108        C115   1.255       .  A
O108        V112   1.848       .  S
O109        C114   1.262       .  A
O109        V112   1.891       .  S
O110        C113   1.261       .  A
O110        V568   1.909       .  S
V111        O559   1.912   1_554  S
V111        V112   2.086       .  T
V112        O566   1.910   1_554  S
C113        C125   1.480       .  S
C115        C121   1.448       .  S
C116        C296   1.445       .  S
N117        C121   1.359       .  A
N117        C118   1.360       .  A
C118        C119   1.380       .  A
C119        C120   1.344   1_554  A
C119        H122   1.077       .  S
C120        C121   1.379   1_556  A
C120        H123   1.083       .  S
N124        C128   1.380       .  A
N124        C125   1.374       .  A
N124        C163   1.468       .  S
C125        C126   1.371       .  A
C126        C127   1.360       .  A
C126        H129   1.082       .  S
C127        C128   1.390       .  A
C127        H130   1.082       .  S
C128        C423   1.514       .  S
N131        C135   1.381       .  A
N131        C132   1.375       .  A
N131        C150   1.478       .  S
C132        C438   1.499       .  S
C132        C133   1.387       .  A
C133        C134   1.354       .  A
C133        H136   1.080       .  S
C134        C135   1.371       .  A
C134        H137   1.081       .  S
C135        C337   1.492       .  S
O138        C148   1.281       .  A
O138        V146   1.962       .  S
O139        C149   1.284       .  A
O139       V1970   1.916   1_455  S
O140        C150   1.257       .  A
O140       V1970   1.889   1_455  S
O141        C151   1.252       .  A
O141        V146   1.882       .  S
O142        C151   1.288       .  A
O142        V147   1.977       .  S
O143        C150   1.290       .  A
O143       V1971   1.986   1_455  S
O144        C149   1.251       .  A
O144       V1971   1.908   1_455  S
O145        C148   1.264       .  A
O145        V147   1.912       .  S
V146       O1963   1.916       .  S
V146       O1964   1.890       .  S
V146        V147   2.077       .  T
V147       O1967   1.986       .  S
V147       O1968   1.907       .  S
C148        N264   1.475       .  S
C149        C170   1.494       .  S
O152        C162   1.278       .  A
O152        V160   1.961       .  S
O153        C163   1.272       .  A
O153       V1984   1.925       .  S
O154        C164   1.279       .  A
O154        V160   1.964       .  S
O155        C165   1.264       .  A
O155       V1984   1.913       .  S
O156        C165   1.261       .  A
O156       V1985   1.874       .  S
O157        C164   1.270       .  A
O157        V161   1.916       .  S
O158        C163   1.273       .  A
O158       V1985   1.931       .  S
O159        C162   1.275       .  A
O159        V161   1.938       .  S
V160       O1977   1.926   1_455  S
V160       O1979   1.914   1_455  S
V160        V161   2.075       .  T
V161       O1980   1.875   1_455  S
V161       O1982   1.929   1_455  S
C162        N173   1.489       .  S
C164        N166   1.477       .  S
C165        C366   1.482       .  S
N166        C170   1.398       .  A
N166        C167   1.382       .  A
C167        C168   1.388       .  A
C168        C169   1.336   1_455  A
C168        H171   1.081   1_455  S
C169        C170   1.375   1_655  A
C169        H172   1.082       .  S
N173        C177   1.366       .  A
N173        C174   1.404       .  A
C174        C404   1.473       .  S
C174        C175   1.376       .  A
C175        C176   1.341       .  A
C175        H178   1.086       .  S
C176        C177   1.372       .  A
C176        H179   1.077       .  S
C177        C242   1.466       .  S
N180        C184   1.351       .  A
N180        C181   1.364       .  A
N180        C198   1.444       .  S
C181        C416   1.479       .  S
C181        C182   1.393       .  A
C182        C183   1.350       .  A
C182        H185   1.066       .  S
C183        C184   1.365       .  A
C183        H186   1.083       .  S
C184        C358   1.446       .  S
O187        C197   1.270       .  A
O187       V1107   1.881       .  S
O188        C198   1.258       .  A
O188        V195   1.899       .  S
O189       C1111   1.260       .  A
O189       V1107   1.877       .  S
O190        C200   1.257       .  A
O190        V195   1.886       .  S
O191        C200   1.261       .  A
O191        V196   1.876       .  S
O192        C199   1.257       .  A
O192        V196   1.874       .  S
O193        C198   1.276       .  A
O193        V196   1.925       .  S
O194        C197   1.273       .  A
O194       V1108   1.963       .  S
V195       O1099   1.881   1_545  S
V195       O1101   1.877       .  S
V195        V196   2.076       .  T
V196       O1106   1.963   1_545  S
C199        C317   1.438   1_545  S
C199       O1101   1.260       .  A
C200        C219   1.469       .  S
O201       C1123   1.268       .  A
O201        V209   1.907       .  S
O202        C212   1.276       .  A
O202        V209   1.937   1_545  S
O203        C213   1.261       .  A
O203        V209   1.879   1_545  S
O204        C214   1.255       .  A
O204       V1121   1.893       .  S
O205        C214   1.272       .  A
O205       V1122   1.912       .  S
O206        C213   1.271       .  A
O206        V210   1.920   1_545  S
O207        C212   1.249       .  A
O207        V210   1.855   1_545  S
O208        C211   1.250       .  A
O208       V1122   1.863       .  S
V209       O1116   1.894       .  S
V209        V210   2.080       .  T
V210       O1117   1.913       .  S
V210       O1120   1.863       .  S
C211        C345   1.445       .  S
C211       O1113   1.268       .  A
C212        N215   1.449       .  S
C213        N222   1.447       .  S
N215        C219   1.370       .  A
N215        C216   1.353   1_545  A
C216        C217   1.387       .  A
C217        C218   1.351       .  A
C217        H220   1.078       .  S
C218        C219   1.376   1_565  A
C218        H221   1.081       .  S
N222        C226   1.346       .  A
N222        C223   1.346       .  A
C223        C399   1.506       .  S
C223        C224   1.401       .  A
C224        C225   1.365       .  A
C224        H227   1.082       .  S
C225        C226   1.373       .  A
C225        H228   1.082       .  S
C226        C288   1.436       .  S
O229        C239   1.274       .  A
O229        V237   1.936       .  S
O230        C240   1.269       .  A
O230        V237   1.920       .  S
O231        C241   1.273       .  A
O231        V237   1.932       .  S
O232        C242   1.266       .  A
O232        V693   1.925       .  S
O233        C242   1.259       .  A
O233        V694   1.866       .  S
O234        C241   1.259       .  A
O234        V238   1.859       .  S
O235        C240   1.271       .  A
O235        V238   1.915       .  S
O236        C239   1.257       .  A
O236        V238   1.883       .  S
V237        O688   1.925   1_554  S
V237        V238   2.077       .  T
V238        O689   1.861   1_554  S
C239        N699   1.453   1_554  S
C240        N390   1.462       .  S
C241        N271   1.446       .  S
N243        C247   1.372       .  A
N243        C244   1.360       .  A
N243        C695   1.452       .  S
C244        C245   1.392       .  A
C245        C246   1.341       .  A
C245        H248   1.075       .  S
C246        C247   1.367       .  A
C246        H249   1.082       .  S
O250        C260   1.269       .  A
O250        V258   1.890       .  S
O251        C261   1.271       .  A
O251       V2082   1.925       .  S
O252        C262   1.258       .  A
O252        V258   1.890       .  S
O253        C263   1.254       .  A
O253       V2082   1.874       .  S
O254        C263   1.265       .  A
O254       V2083   1.894   1_455  S
O255        C262   1.267       .  A
O255        V259   1.897       .  S
O256        C261   1.269   1_655  A
O256       V2083   1.925       .  S
O257        C260   1.259       .  A
O257        V259   1.905       .  S
V258       O2075   1.924       .  S
V258       O2077   1.875       .  S
V258        V259   2.085       .  T
V259       O2078   1.896       .  S
V259       O2080   1.925       .  S
C260        C268   1.475       .  S
C261        N376   1.463       .  S
C263        C275   1.446       .  S
N264        C268   1.375       .  A
N264        C265   1.373       .  A
C265        C266   1.384       .  A
C266        C267   1.343       .  A
C266        H269   1.081       .  S
C267        C268   1.375       .  A
C267        H270   1.082       .  S
N271        C275   1.365       .  A
N271        C272   1.362       .  A
C272        C440   1.481       .  S
C272        C273   1.381       .  A
C273        C274   1.359       .  A
C273        H276   1.077       .  S
C274        C275   1.356       .  A
C274        H277   1.079       .  S
O278        C288   1.261       .  A
O278        V286   1.880       .  S
O279        C289   1.263       .  A
O279        V742   1.897   1_554  S
O280        C290   1.252       .  A
O280        V286   1.852       .  S
O281        C291   1.254       .  A
O281        V742   1.862       .  S
O282        C291   1.263       .  A
O282        V743   1.900       .  S
O283        C290   1.268       .  A
O283        V287   1.894       .  S
O284        C289   1.262       .  A
O284        V743   1.892   1_554  S
O285        C288   1.255       .  A
O285        V287   1.866       .  S
V286        O735   1.899       .  S
V286        O737   1.860       .  S
V286        V287   2.084       .  T
V287        O738   1.901       .  S
V287        O740   1.892       .  S
C289        C324   1.461       .  S
C290        N292   1.412       .  S
C291        C394   1.446       .  S
N292        C293   1.334       .  A
N292        C752   1.338       .  A
C293        C294   1.394       .  A
C294        C295   1.374       .  A
C294        H297   1.073       .  S
C295        C752   1.372       .  A
C295        H754   1.083       .  S
C296        N748   1.337   1_554  A
C296        C751   1.372       .  A
H298        C751   1.082       .  S
O299        C309   1.270       .  A
O299       V1219   1.891       .  S
O300        C310   1.266       .  A
O300        V307   1.895       .  S
O301        C311   1.261       .  A
O301        V307   1.899       .  S
O302        C312   1.262   1_545  A
O302        V307   1.874       .  S
O303        C312   1.276       .  A
O303        V308   1.954   1_565  S
O304        C311   1.286       .  A
O304        V308   1.977       .  S
O305        C310   1.266       .  A
O305        V308   1.899       .  S
O306        C309   1.260       .  A
O306       V1220   1.912       .  S
V307       O1211   1.892   1_545  S
V307        V308   2.078       .  T
V308       O1218   1.911   1_545  S
C310        N320   1.448       .  S
C311        N383   1.480       .  S
C312       N1225   1.462       .  S
N313        C314   1.372       .  A
N313       C1229   1.353       .  A
N313       C1224   1.463       .  S
C314        C315   1.384       .  A
C315        C316   1.345       .  A
C315        H318   1.079       .  S
C316       C1229   1.368       .  A
C316        H319   1.076       .  S
C317       N1225   1.352       .  A
C317       C1228   1.368       .  A
N320        C324   1.356       .  A
N320        C321   1.358       .  A
C321        C414   1.498       .  S
C321        C322   1.383       .  A
C322        C323   1.371       .  A
C322        H325   1.078       .  S
C323        C324   1.370       .  A
C323        H326   1.082       .  S
O327        C337   1.277       .  A
O327        V335   1.923       .  S
O328        C338   1.270       .  A
O328       V1247   1.951       .  S
O329        C339   1.271       .  A
O329        V335   1.912       .  S
O330        C340   1.261       .  A
O330       V1247   1.914       .  S
O331        C340   1.271       .  A
O331       V1248   1.894       .  S
O332        C339   1.267       .  A
O332        V336   1.916       .  S
O333        C338   1.267       .  A
O333       V1248   1.879       .  S
O334        C337   1.258       .  A
O334        V336   1.909       .  S
V335       O1240   1.952       .  S
V335       O1242   1.914       .  S
V335        V336   2.082       .  T
V336       O1243   1.894       .  S
V336       O1245   1.878       .  S
C338        N369   1.460       .  S
C339        N341   1.457       .  S
C340        C387   1.494       .  S
N341        C345   1.353       .  A
N341        C342   1.361       .  A
C342        C343   1.395       .  A
C343        C344   1.359       .  A
C343        H346   1.079       .  S
C344        C345   1.369       .  A
C344        H347   1.083       .  S
O348        C358   1.255       .  A
O348        V356   1.847       .  S
O349        C359   1.258       .  A
O349       V2180   1.836   1_455  S
O350        C360   1.264       .  A
O350        V356   1.923       .  S
O351        C361   1.268       .  A
O351        V356   1.914       .  S
O352        C361   1.268       .  A
O352        V357   1.906       .  S
O353        C360   1.274       .  A
O353        V357   1.898       .  S
O354        C359   1.261       .  A
O354       V2181   1.904   1_455  S
O355        C358   1.261       .  A
O355        V357   1.888       .  S
V356       O2173   1.838       .  S
V356        V357   2.062       .  T
V357       O2178   1.903       .  S
C359        C373   1.453       .  S
C360       C2204   1.493       .  S
C361        N362   1.450       .  S
N362        C366   1.370       .  A
N362        C363   1.371       .  A
C363        C364   1.383       .  A
C364        C365   1.356       .  A
C364        H367   1.077       .  S
C365        C366   1.375       .  A
C365        H368   1.083       .  S
N369        C373   1.354       .  A
N369        C370   1.378       .  A
C370        C402   1.470       .  S
C370        C371   1.386       .  A
C371        C372   1.361       .  A
C371        H374   1.080       .  S
C372        C373   1.373       .  A
C372        H375   1.077       .  S
N376        C380   1.383   1_455  A
N376        C377   1.376       .  A
C377        C378   1.380   1_455  A
C378        C379   1.350       .  A
C378        H381   1.080       .  S
C379        C380   1.380       .  A
C379        H382   1.083       .  S
C380       C2184   1.493       .  S
N383        C387   1.387       .  A
N383        C384   1.380       .  A
C384        C385   1.387       .  A
C385        C386   1.340       .  A
C385        H388   1.082       .  S
C386        C387   1.373       .  A
C386        H389   1.083   1_545  S
N390        C394   1.344   1_554  A
N390        C391   1.360       .  A
C391        C392   1.397   1_554  A
C392        C393   1.374       .  A
C392        H395   1.083       .  S
C393        C394   1.380       .  A
C393        H396   1.079       .  S
C397        C398   1.507       .  S
C397        C403   1.481       .  S
C397        C401   1.579       .  S
C397        C447   1.497       .  S
C398        C399   1.344       .  D
C398        H405   1.082       .  S
C399        C400   1.545       .  S
C400        C404   1.598       .  S
C400        C402   1.529       .  S
C400        H406   1.112       .  S
C401        C402   1.397       .  D
C401        H407   1.084       .  S
C403        C404   1.334       .  D
C403        H408   1.089       .  S
C409        C410   1.511       .  S
C409        C415   1.523       .  S
C409        C413   1.515       .  S
C409        C450   1.505       .  S
C410        C411   1.349       .  D
C410        H417   1.078       .  S
C411        C412   1.565       .  S
C412        C416   1.556       .  S
C412        C414   1.579       .  S
C412        H418   1.110       .  S
C413        C414   1.383       .  D
C413        H419   1.083       .  S
C415        C416   1.365       .  D
C415        H420   1.088       .  S
C421        C422   1.534       .  S
C421        C427   1.541       .  S
C421        C425   1.594       .  S
C421        C445   1.631       .  S
C422        C423   1.380       .  D
C422        H429   1.084       .  S
C423        C424   1.539       .  S
C424        C428   1.567       .  S
C424        C426   1.549       .  S
C424        H430   1.102       .  S
C425        C426   1.402       .  D
C425        H431   1.085       .  S
C427        C428   1.367       .  D
C427        H432   1.088       .  S
C433        C434   1.505       .  S
C433        C439   1.530       .  S
C433        C437   1.544       .  S
C433        C452   1.544       .  S
C434        C435   1.370       .  D
C434        H441   1.079       .  S
C435        C436   1.560       .  S
C436        C440   1.526       .  S
C436        C438   1.560       .  S
C436        H442   1.110       .  S
C437        C438   1.379       .  D
C437        H443   1.086       .  S
C439        C440   1.359       .  D
C439        H444   1.065       .  S
C445        C446   1.538       .  S
C445        C451   1.566       .  S
C445        C449   1.547       .  S
C446        C447   1.397       .  D
C446        H453   1.086       .  S
C447        C448   1.480       .  S
C448        C452   1.530       .  S
C448        C450   1.507       .  S
C448        H454   1.086       .  S
C449        C450   1.371       .  D
C449        H455   1.086       .  S
C451        C452   1.395       .  D
C451        H456   1.085       .  S
C457        C458   1.493       .  S
C457        C463   1.566       .  S
C457        C461   1.523       .  S
C457        C505   1.594       .  S
C458        C459   1.390       .  D
C459        C460   1.581       .  S
C459        C847   1.534       .  S
C460        C464   1.538       .  S
C460        C462   1.594       .  S
C460        H466   1.110       .  S
C461        C462   1.369       .  D
C461       H1379   1.087       .  S
C462        C840   1.522       .  S
C463        C464   1.362       .  D
C463       H2292   1.085   1_455  S
C464        C833   1.500       .  S
H467       C1373   1.087       .  S
H468       C2287   1.085       .  S
C469        C470   1.519       .  S
C469        C475   1.514       .  S
C469        C473   1.504       .  S
C469        C507   1.483       .  S
C470        C471   1.373       .  D
C470       H1389   1.076   1_545  S
C471        C472   1.552       .  S
C471        C672   1.476   1_545  S
C472        C476   1.545       .  S
C472        C474   1.575       .  S
C472        H478   1.110       .  S
C473        C474   1.362       .  D
C473        H479   1.089       .  S
C474        C819   1.478       .  S
C475        C476   1.352       .  D
C476        C749   1.486       .  S
H477       C1382   1.077       .  S
C481        C482   1.527       .  S
C481        C487   1.519       .  S
C481        C485   1.530       .  S
C481        C510   1.507       .  S
C482        C483   1.351       .  D
C482        H489   1.090       .  S
C483        C484   1.576       .  S
C483        C721   1.500       .  S
C484        C488   1.579       .  S
C484        C486   1.526       .  S
C484        H490   1.105       .  S
C485        C486   1.334       .  D
C485        H491   1.067       .  S
C486        C574   1.460       .  S
C487        C488   1.375       .  D
C487       H1404   1.078       .  S
C488        C770   1.487       .  S
H492       C1399   1.078       .  S
C493        C494   1.505       .  S
C493        C499   1.555       .  S
C493        C497   1.566       .  S
C493        C512   1.536       .  S
C494        C495   1.354       .  D
C495        C496   1.573       .  S
C495        C700   1.482       .  S
C496        C500   1.542       .  S
C496        C498   1.534       .  S
C496        H502   1.103       .  S
C497        C498   1.377       .  D
C497        H503   1.086       .  S
C498        C798   1.500       .  S
C499        C500   1.372       .  D
C499       H2328   1.074   1_455  S
C500        C623   1.518       .  S
H504       C2323   1.076       .  S
C505       C2330   1.538       .  S
C505       C1423   1.575   1_545  S
C505       C3245   1.541   1_455  S
C506       C2329   1.537       .  S
C507       C1420   1.495   1_545  S
C508       C1419   1.494       .  S
C508       C2336   1.502       .  S
C508        H514   1.064       .  S
C509       C3241   1.541       .  S
C509        C510   1.348       .  D
C509        H515   1.084       .  S
C511       C1417   1.575       .  S
C511        H516   1.084       .  S
C512       C2332   1.501   1_455  S
N517        C521   1.400       .  A
N517        C518   1.385       .  A
N517        C607   1.465       .  S
C518        C884   1.513       .  S
C518        C519   1.386       .  A
C519        C520   1.328       .  A
C519        H522   1.079       .  S
C520        C521   1.378       .  A
C520        H523   1.082       .  S
C521        C653   1.522       .  S
N524        C528   1.370       .  A
N524        C525   1.379       .  A
N524        C555   1.488       .  S
C525        C882   1.547       .  S
C525        C526   1.398       .  A
C526        C527   1.355       .  A
C526        H529   1.077       .  S
C527        C528   1.365       .  A
C527        H530   1.080       .  S
C528        C670   1.473       .  S
N531        C535   1.370       .  A
N531        C532   1.364       .  A
N531        C556   1.465       .  S
C532        C891   1.508       .  S
C532        C533   1.391       .  A
C533        C534   1.348       .  A
C533        H536   1.080       .  S
C534        C535   1.365       .  A
C534        H537   1.082       .  S
C535        C765   1.481       .  S
N538        C542   1.355       .  A
N538        C539   1.357       .  A
N538        C570   1.434       .  S
C539        C867   1.514       .  S
C539        C540   1.403       .  A
C540        C541   1.364       .  A
C540        H543   1.079       .  S
C541        C542   1.372       .  A
C541        H544   1.082       .  S
C542        C718   1.468       .  S
O545        C555   1.278       .  A
O546        C556   1.276       .  A
O546        V553   1.933       .  S
O547        C557   1.253       .  A
O548        C558   1.265       .  A
O548        V553   1.903       .  S
O549        C558   1.270       .  A
O549        V554   1.934       .  S
O550        C557   1.266       .  A
O551        C556   1.268       .  A
O551        V554   1.921       .  S
O552        C555   1.275       .  A
V553        V554   2.081       .  T
C557        C703   1.457       .  S
C558        N573   1.460       .  S
O559        C569   1.265       .  A
O560        C570   1.266       .  A
O560        V567   1.887       .  S
O561        C571   1.258       .  A
O561        V567   1.886       .  S
O562        C572   1.261       .  A
O562        V567   1.885       .  S
O563        C572   1.254       .  A
O563        V568   1.869       .  S
O564        C571   1.256       .  A
O564        V568   1.851       .  S
O565        C570   1.262       .  A
O565        V568   1.891       .  S
O566        C569   1.261       .  A
V567        V568   2.086       .  T
C569        C581   1.484       .  S
C571        C577   1.448       .  S
C572        C752   1.446       .  S
N573        C577   1.359       .  A
N573        C574   1.360       .  A
C574        C575   1.381       .  A
C575        C576   1.345       .  A
C575        H578   1.077       .  S
C576        C577   1.379       .  A
C576        H579   1.083       .  S
N580        C584   1.380       .  A
N580        C581   1.376       .  A
N580        C619   1.468       .  S
C581        C582   1.371       .  A
C582        C583   1.360       .  A
C582        H585   1.082       .  S
C583        C584   1.390       .  A
C583        H586   1.081       .  S
C584        C879   1.514       .  S
N587        C591   1.381       .  A
N587        C588   1.376       .  A
N587        C606   1.478       .  S
C588        C894   1.500       .  S
C588        C589   1.387       .  A
C589        C590   1.354       .  A
C589        H592   1.081       .  S
C590        C591   1.372       .  A
C590        H593   1.081       .  S
C591        C793   1.494       .  S
O594        C604   1.281       .  A
O594        V602   1.960       .  S
O595        C605   1.284       .  A
O595       V2426   1.916   1_455  S
O596        C606   1.258       .  A
O596       V2426   1.890   1_455  S
O597        C607   1.252       .  A
O597        V602   1.882       .  S
O598        C607   1.288       .  A
O598        V603   1.978       .  S
O599        C606   1.290       .  A
O599       V2427   1.986   1_455  S
O600        C605   1.251       .  A
O600       V2427   1.907   1_455  S
O601        C604   1.265       .  A
O601        V603   1.914       .  S
V602       O2419   1.916       .  S
V602       O2420   1.889       .  S
V602        V603   2.077       .  T
V603       O2423   1.986       .  S
V603       O2424   1.908       .  S
C604        N720   1.474       .  S
C605        C626   1.494       .  S
O608        C618   1.277       .  A
O608        V616   1.960       .  S
O609        C619   1.273       .  A
O609       V2440   1.926       .  S
O610        C620   1.279       .  A
O610        V616   1.963       .  S
O611        C621   1.264       .  A
O611       V2440   1.914       .  S
O612        C621   1.262       .  A
O612       V2441   1.875       .  S
O613        C620   1.270       .  A
O613        V617   1.915       .  S
O614        C619   1.272       .  A
O614       V2441   1.929       .  S
O615        C618   1.276       .  A
O615        V617   1.941       .  S
V616       O2433   1.925   1_455  S
V616       O2435   1.913   1_455  S
V616        V617   2.076       .  T
V617       O2436   1.874   1_455  S
V617       O2438   1.931   1_455  S
C618        N629   1.489       .  S
C620        N622   1.477       .  S
C621        C822   1.483       .  S
N622        C626   1.398       .  A
N622        C623   1.382       .  A
C623        C624   1.387   1_455  A
C624        C625   1.335       .  A
C624        H627   1.082       .  S
C625        C626   1.374   1_655  A
C625        H628   1.082       .  S
N629        C633   1.365       .  A
N629        C630   1.404       .  A
C630        C860   1.474       .  S
C630        C631   1.376       .  A
C631        C632   1.341       .  A
C631        H634   1.085       .  S
C632        C633   1.372       .  A
C632        H635   1.077       .  S
C633        C698   1.466       .  S
N636        C640   1.351       .  A
N636        C637   1.364       .  A
N636        C654   1.444       .  S
C637        C872   1.480       .  S
C637        C638   1.393       .  A
C638        C639   1.351       .  A
C638        H641   1.067       .  S
C639        C640   1.365       .  A
C639        H642   1.083       .  S
C640        C814   1.446       .  S
O643        C653   1.270       .  A
O643       V1563   1.880       .  S
O644        C654   1.258       .  A
O644        V651   1.899       .  S
O645       C1567   1.259       .  A
O645       V1563   1.877       .  S
O646        C656   1.258       .  A
O646        V651   1.887       .  S
O647        C656   1.262       .  A
O647        V652   1.876       .  S
O648        C655   1.258       .  A
O648        V652   1.877       .  S
O649        C654   1.276       .  A
O649        V652   1.926       .  S
O650        C653   1.273       .  A
O650       V1564   1.964       .  S
V651       O1555   1.879   1_545  S
V651       O1557   1.878       .  S
V651        V652   2.077       .  T
V652       O1562   1.964   1_545  S
C655        C773   1.440   1_545  S
C655       O1557   1.259       .  A
C656        C675   1.471       .  S
O657       C1579   1.269       .  A
O657        V665   1.910       .  S
O658        C668   1.277       .  A
O658        V665   1.940   1_545  S
O659        C669   1.260       .  A
O659        V665   1.876   1_545  S
O660        C670   1.255       .  A
O660       V1577   1.893       .  S
O661        C670   1.273       .  A
O661       V1578   1.913       .  S
O662        C669   1.271       .  A
O662        V666   1.919   1_545  S
O663        C668   1.249       .  A
O663        V666   1.859   1_545  S
O664        C667   1.250       .  A
O664       V1578   1.866       .  S
V665       O1572   1.893       .  S
V665        V666   2.079       .  T
V666       O1573   1.913       .  S
V666       O1576   1.866       .  S
C667        C801   1.450       .  S
C667       O1569   1.269       .  A
C668        N671   1.450       .  S
C669        N678   1.445       .  S
N671        C675   1.372       .  A
N671        C672   1.355   1_545  A
C672        C673   1.387       .  A
C673        C674   1.350       .  A
C673        H676   1.078       .  S
C674        C675   1.376   1_565  A
C674        H677   1.082       .  S
N678        C682   1.346       .  A
N678        C679   1.345       .  A
C679        C855   1.504       .  S
C679        C680   1.401       .  A
C680        C681   1.365       .  A
C680        H683   1.082       .  S
C681        C682   1.372       .  A
C681        H684   1.082       .  S
C682        C744   1.435       .  S
O685        C695   1.275       .  A
O685        V693   1.936       .  S
O686        C696   1.269       .  A
O686        V693   1.920       .  S
O687        C697   1.273       .  A
O687        V693   1.931       .  S
O688        C698   1.266       .  A
O689        C698   1.258       .  A
O690        C697   1.260       .  A
O690        V694   1.861       .  S
O691        C696   1.270       .  A
O691        V694   1.911       .  S
O692        C695   1.257       .  A
O692        V694   1.882       .  S
V693        V694   2.075       .  T
C696        N846   1.461       .  S
C697        N727   1.445       .  S
N699        C703   1.372       .  A
N699        C700   1.360       .  A
C700        C701   1.392       .  A
C701        C702   1.341       .  A
C701        H704   1.074       .  S
C702        C703   1.367       .  A
C702        H705   1.082       .  S
O706        C716   1.270       .  A
O706        V714   1.892       .  S
O707        C717   1.271       .  A
O707       V2538   1.924       .  S
O708        C718   1.258       .  A
O708        V714   1.890       .  S
O709        C719   1.254       .  A
O709       V2538   1.875       .  S
O710        C719   1.266       .  A
O710       V2539   1.896   1_455  S
O711        C718   1.267       .  A
O711        V715   1.895       .  S
O712        C717   1.269   1_655  A
O712       V2539   1.925       .  S
O713        C716   1.259       .  A
O713        V715   1.905       .  S
V714       O2531   1.925       .  S
V714       O2533   1.874       .  S
V714        V715   2.086       .  T
V715       O2534   1.894       .  S
V715       O2536   1.925       .  S
C716        C724   1.476       .  S
C717        N832   1.462       .  S
C719        C731   1.448       .  S
N720        C724   1.375       .  A
N720        C721   1.371       .  A
C721        C722   1.384       .  A
C722        C723   1.344       .  A
C722        H725   1.081       .  S
C723        C724   1.375       .  A
C723        H726   1.082       .  S
N727        C731   1.366       .  A
N727        C728   1.362       .  A
C728        C896   1.481       .  S
C728        C729   1.381       .  A
C729        C730   1.359       .  A
C729        H732   1.077       .  S
C730        C731   1.358       .  A
C730        H733   1.079       .  S
O734        C744   1.260       .  A
O734        V742   1.878       .  S
O735        C745   1.263       .  A
O736        C746   1.253       .  A
O736        V742   1.854       .  S
O737        C747   1.253       .  A
O738        C747   1.263       .  A
O739        C746   1.267       .  A
O739        V743   1.895       .  S
O740        C745   1.262       .  A
O741        C744   1.256       .  A
O741        V743   1.866       .  S
V742        V743   2.083       .  T
C745        C780   1.462       .  S
C746        N748   1.413       .  S
C747        C850   1.445       .  S
N748        C749   1.335       .  A
C749        C750   1.394   1_556  A
C750        C751   1.374       .  A
C750        H753   1.073       .  S
O755        C765   1.270       .  A
O755       V1675   1.892       .  S
O756        C766   1.266       .  A
O756        V763   1.896       .  S
O757        C767   1.261       .  A
O757        V763   1.899       .  S
O758        C768   1.262   1_545  A
O758        V763   1.875       .  S
O759        C768   1.275       .  A
O759        V764   1.952   1_565  S
O760        C767   1.285       .  A
O760        V764   1.976       .  S
O761        C766   1.266       .  A
O761        V764   1.900       .  S
O762        C765   1.260       .  A
O762       V1676   1.912       .  S
V763       O1667   1.891   1_545  S
V763        V764   2.078       .  T
V764       O1674   1.912   1_545  S
C766        N776   1.448       .  S
C767        N839   1.479       .  S
C768       N1681   1.462       .  S
N769       C1685   1.352       .  A
N769        C770   1.372       .  A
N769       C1680   1.462       .  S
C770        C771   1.383       .  A
C771        C772   1.346       .  A
C771        H774   1.079       .  S
C772       C1685   1.369       .  A
C772        H775   1.075       .  S
C773       N1681   1.353       .  A
C773       C1684   1.369       .  A
N776        C780   1.357       .  A
N776        C777   1.359       .  A
C777        C870   1.500       .  S
C777        C778   1.384       .  A
C778        C779   1.371       .  A
C778        H781   1.078       .  S
C779        C780   1.371       .  A
C779        H782   1.082       .  S
O783        C793   1.278       .  A
O783        V791   1.925       .  S
O784        C794   1.271       .  A
O784       V1703   1.954       .  S
O785        C795   1.271       .  A
O785        V791   1.912       .  S
O786        C796   1.260       .  A
O786       V1703   1.911       .  S
O787        C796   1.271       .  A
O787       V1704   1.895   1_545  S
O788        C795   1.268       .  A
O788        V792   1.920       .  S
O789        C794   1.267       .  A
O789       V1704   1.880   1_545  S
O790        C793   1.259       .  A
O790        V792   1.910       .  S
V791       O1696   1.954       .  S
V791       O1698   1.911       .  S
V791        V792   2.082       .  T
V792       O1699   1.895       .  S
V792       O1701   1.880       .  S
C794        N825   1.462       .  S
C795        N797   1.458       .  S
C796        C843   1.491       .  S
N797        C801   1.355       .  A
N797        C798   1.362       .  A
C798        C799   1.394       .  A
C799        C800   1.359       .  A
C799        H802   1.079       .  S
C800        C801   1.369       .  A
C800        H803   1.083       .  S
O804        C814   1.255       .  A
O804        V812   1.847       .  S
O805        C815   1.258       .  A
O805       V2636   1.838   1_455  S
O806        C816   1.264       .  A
O806        V812   1.922       .  S
O807        C817   1.267       .  A
O807        V812   1.912       .  S
O808        C817   1.268       .  A
O808        V813   1.907       .  S
O809        C816   1.275       .  A
O809        V813   1.900       .  S
O810        C815   1.261       .  A
O810       V2637   1.903   1_455  S
O811        C814   1.261       .  A
O811        V813   1.888       .  S
V812       O2629   1.836       .  S
V812        V813   2.060       .  T
V813       O2634   1.904       .  S
C815        C829   1.453       .  S
C816       C2660   1.493       .  S
C817        N818   1.449       .  S
N818        C822   1.370       .  A
N818        C819   1.371       .  A
C819        C820   1.383       .  A
C820        C821   1.357       .  A
C820        H823   1.077       .  S
C821        C822   1.375       .  A
C821        H824   1.083       .  S
N825        C829   1.355       .  A
N825        C826   1.379       .  A
C826        C858   1.472       .  S
C826        C827   1.386       .  A
C827        C828   1.360       .  A
C827        H830   1.080       .  S
C828        C829   1.372       .  A
C828        H831   1.078       .  S
N832        C836   1.383   1_455  A
N832        C833   1.376       .  A
C833        C834   1.380       .  A
C834        C835   1.350   1_455  A
C834        H837   1.080       .  S
C835        C836   1.380       .  A
C835        H838   1.083       .  S
C836       C2640   1.493       .  S
N839        C843   1.385       .  A
N839        C840   1.378       .  A
C840        C841   1.389       .  A
C841        C842   1.340       .  A
C841        H844   1.082   1_545  S
C842        C843   1.372       .  A
C842        H845   1.083   1_545  S
N846        C850   1.344       .  A
N846        C847   1.359       .  A
C847        C848   1.397       .  A
C848        C849   1.375       .  A
C848        H851   1.084       .  S
C849        C850   1.380       .  A
C849        H852   1.079       .  S
C853        C854   1.506       .  S
C853        C859   1.482       .  S
C853        C857   1.580       .  S
C853        C903   1.497       .  S
C854        C855   1.343       .  D
C854        H861   1.082       .  S
C855        C856   1.546       .  S
C856        C860   1.598       .  S
C856        C858   1.529       .  S
C856        H862   1.112       .  S
C857        C858   1.397       .  D
C857        H863   1.085       .  S
C859        C860   1.335       .  D
C859        H864   1.089       .  S
C865        C866   1.512       .  S
C865        C871   1.523       .  S
C865        C869   1.515       .  S
C865        C906   1.507       .  S
C866        C867   1.349       .  D
C866        H873   1.078       .  S
C867        C868   1.565       .  S
C868        C872   1.557       .  S
C868        C870   1.580       .  S
C868        H874   1.110       .  S
C869        C870   1.384       .  D
C869        H875   1.083       .  S
C871        C872   1.366       .  D
C871        H876   1.088       .  S
C877        C878   1.534       .  S
C877        C883   1.541       .  S
C877        C881   1.594       .  S
C877        C901   1.632       .  S
C878        C879   1.380       .  D
C878        H885   1.084       .  S
C879        C880   1.540       .  S
C880        C884   1.567       .  S
C880        C882   1.550       .  S
C880        H886   1.102       .  S
C881        C882   1.403       .  D
C881        H887   1.085       .  S
C883        C884   1.368       .  D
C883        H888   1.087       .  S
C889        C890   1.504       .  S
C889        C895   1.530       .  S
C889        C893   1.544       .  S
C889        C908   1.543       .  S
C890        C891   1.369       .  D
C890        H897   1.079       .  S
C891        C892   1.561       .  S
C892        C896   1.526       .  S
C892        C894   1.561       .  S
C892        H898   1.110       .  S
C893        C894   1.379       .  D
C893        H899   1.085       .  S
C895        C896   1.359       .  D
C895        H900   1.065       .  S
C901        C902   1.539       .  S
C901        C907   1.565       .  S
C901        C905   1.547       .  S
C902        C903   1.397       .  D
C902        H909   1.086       .  S
C903        C904   1.480       .  S
C904        C908   1.530       .  S
C904        C906   1.508       .  S
C904        H910   1.087       .  S
C905        C906   1.372       .  D
C905        H911   1.086       .  S
C907        C908   1.395       .  D
C907        H912   1.085       .  S
C913        C914   1.495       .  S
C913        C919   1.565       .  S
C913        C917   1.524       .  S
C913        C961   1.595       .  S
C914        C915   1.391       .  D
C914       H1377   1.082   1_554  S
C915        C916   1.581       .  S
C915       C1303   1.537       .  S
C916        C920   1.539       .  S
C916        C918   1.594       .  S
C916        H922   1.110       .  S
C917        C918   1.370       .  D
C918       C1296   1.522       .  S
C919        C920   1.361       .  D
C919       H2748   1.085   1_455  S
C920       C1289   1.500       .  S
H921       C1370   1.082       .  S
H924       C2743   1.085       .  S
C925        C926   1.517       .  S
C925        C931   1.514       .  S
C925        C929   1.504       .  S
C925        C963   1.481       .  S
C926        C927   1.372       .  D
C927        C928   1.552       .  S
C927       C1128   1.473       .  S
C928        C932   1.543       .  S
C928        C930   1.576       .  S
C928        H934   1.110       .  S
C929        C930   1.361       .  D
C929        H935   1.090       .  S
C930       C1275   1.478       .  S
C931        C932   1.351       .  D
C931       H1392   1.086       .  S
C932       C1205   1.484       .  S
H936       C1387   1.086   1_554  S
C937        C938   1.526       .  S
C937        C943   1.521       .  S
C937        C941   1.531       .  S
C937        C966   1.508       .  S
C938        C939   1.351       .  D
C938        H945   1.090       .  S
C939        C940   1.575       .  S
C939       C1177   1.499       .  S
C940        C944   1.578       .  S
C940        C942   1.527       .  S
C940        H946   1.105       .  S
C941        C942   1.335       .  D
C941        H947   1.069   1_554  S
C942       C1030   1.461       .  S
C943        C944   1.376       .  D
C944       C1226   1.487       .  S
C949        C950   1.505       .  S
C949        C955   1.556       .  S
C949        C953   1.566       .  S
C949        C968   1.537       .  S
C950        C951   1.355       .  D
C950       H1413   1.090       .  S
C951        C952   1.572       .  S
C951       C1156   1.481       .  S
C952        C956   1.541       .  S
C952        C954   1.534       .  S
C952        H958   1.103       .  S
C953        C954   1.377       .  D
C953        H959   1.086       .  S
C954       C1254   1.499       .  S
C955        C956   1.371       .  D
C955       H2784   1.074   1_455  S
C956       C1079   1.519       .  S
H957       C1406   1.090   1_554  S
H960       C2779   1.074       .  S
C961       C2786   1.537   1_554  S
C961       C1877   1.541   1_455  S
C962       C2785   1.539   1_556  S
C962       C1419   1.373       .  D
C962       H1425   1.085       .  S
C963       C1418   1.373       .  D
C964       C2792   1.501       .  S
C964       C1422   1.523       .  S
C964        H970   1.060       .  S
C965       C1873   1.541       .  S
C965        C966   1.348   1_545  D
C965        H971   1.084       .  S
C966       C1420   1.524   1_554  S
C967       C1424   1.393       .  D
C967        H972   1.085       .  S
C968       C2788   1.502   1_455  S
C968       C1423   1.391       .  D
H969       C1418   1.085       .  S
N973        C977   1.400       .  A
N973        C974   1.384       .  A
N973       C1063   1.465       .  S
C974       C1340   1.513       .  S
C974        C975   1.387       .  A
C975        C976   1.328       .  A
C975        H978   1.078       .  S
C976        C977   1.378       .  A
C976        H979   1.083       .  S
C977       C1109   1.522       .  S
N980        C984   1.369       .  A
N980        C981   1.379       .  A
N980       C1011   1.487       .  S
C981       C1338   1.545       .  S
C981        C982   1.398       .  A
C982        C983   1.354       .  A
C982        H985   1.077       .  S
C983        C984   1.365       .  A
C983        H986   1.080       .  S
C984       C1126   1.472       .  S
N987        C991   1.370       .  A
N987        C988   1.365       .  A
N987       C1012   1.465       .  S
C988       C1347   1.508       .  S
C988        C989   1.391       .  A
C989        C990   1.348       .  A
C989        H992   1.080       .  S
C990        C991   1.365       .  A
C990        H993   1.081       .  S
C991       C1221   1.481       .  S
N994        C998   1.356       .  A
N994        C995   1.356       .  A
N994       C1026   1.434       .  S
C995       C1323   1.513       .  S
C995        C996   1.403       .  A
C996        C997   1.364       .  A
C996        H999   1.079       .  S
C997        C998   1.373       .  A
C997       H1000   1.082       .  S
C998       C1174   1.469       .  S
O1001      C1011   1.277       .  A
O1001      V1465   1.959       .  S
O1002      C1012   1.276       .  A
O1002      V1009   1.935       .  S
O1003      C1013   1.253       .  A
O1003      V1465   1.882       .  S
O1004      C1014   1.265       .  A
O1004      V1009   1.902       .  S
O1005      C1014   1.269       .  A
O1005      V1010   1.930       .  S
O1006      C1013   1.266       .  A
O1006      V1466   1.880       .  S
O1007      C1012   1.268       .  A
O1007      V1010   1.922       .  S
O1008      C1011   1.275       .  A
O1008      V1466   1.930       .  S
V1009      O1457   1.961   1_554  S
V1009      O1459   1.882   1_554  S
V1009      V1010   2.081       .  T
V1010      O1462   1.879   1_554  S
V1010      O1464   1.930   1_554  S
C1013      C1159   1.458       .  S
C1014      N1029   1.458       .  S
O1015      C1025   1.264       .  A
O1015      V1479   1.908       .  S
O1016      C1026   1.267       .  A
O1016      V1023   1.888       .  S
O1017      C1027   1.259       .  A
O1017      V1023   1.887       .  S
O1018      C1028   1.260       .  A
O1018      V1023   1.885       .  S
O1019      C1028   1.254       .  A
O1019      V1024   1.867       .  S
O1020      C1027   1.255       .  A
O1020      V1024   1.849       .  S
O1021      C1026   1.262       .  A
O1021      V1024   1.890       .  S
O1022      C1025   1.261       .  A
O1022      V1480   1.909       .  S
V1023      O1471   1.912   1_554  S
V1023      V1024   2.086       .  T
V1024      O1478   1.910   1_554  S
C1025      C1037   1.481       .  S
C1027      C1033   1.448       .  S
C1028      C1208   1.445       .  S
N1029      C1033   1.359       .  A
N1029      C1030   1.360       .  A
C1030      C1031   1.380       .  A
C1031      C1032   1.345   1_554  A
C1031      H1034   1.077       .  S
C1032      C1033   1.379   1_556  A
C1032      H1035   1.083       .  S
N1036      C1040   1.379       .  A
N1036      C1037   1.375       .  A
N1036      C1075   1.468       .  S
C1037      C1038   1.371       .  A
C1038      C1039   1.360       .  A
C1038      H1041   1.083       .  S
C1039      C1040   1.391       .  A
C1039      H1042   1.082       .  S
C1040      C1335   1.513       .  S
N1043      C1047   1.381       .  A
N1043      C1044   1.375       .  A
N1043      C1062   1.477       .  S
C1044      C1350   1.498       .  S
C1044      C1045   1.387       .  A
C1045      C1046   1.354       .  A
C1045      H1048   1.080       .  S
C1046      C1047   1.371       .  A
C1046      H1049   1.081       .  S
C1047      C1249   1.492       .  S
O1050      C1060   1.281       .  A
O1050      V1058   1.962       .  S
O1051      C1061   1.284       .  A
O1051      V2882   1.916   1_455  S
O1052      C1062   1.257       .  A
O1052      V2882   1.889   1_455  S
O1053      C1063   1.252       .  A
O1053      V1058   1.882       .  S
O1054      C1063   1.288       .  A
O1054      V1059   1.976       .  S
O1055      C1062   1.290       .  A
O1055      V2883   1.986   1_455  S
O1056      C1061   1.251       .  A
O1056      V2883   1.907   1_455  S
O1057      C1060   1.265       .  A
O1057      V1059   1.913       .  S
V1058      O2875   1.916       .  S
V1058      O2876   1.890       .  S
V1058      V1059   2.077       .  T
V1059      O2879   1.986       .  S
V1059      O2880   1.907       .  S
C1060      N1176   1.475       .  S
C1061      C1082   1.494       .  S
O1064      C1074   1.278       .  A
O1064      V1072   1.961       .  S
O1065      C1075   1.272       .  A
O1065      V2896   1.925       .  S
O1066      C1076   1.279       .  A
O1066      V1072   1.965       .  S
O1067      C1077   1.264       .  A
O1067      V2896   1.913       .  S
O1068      C1077   1.262       .  A
O1068      V2897   1.875       .  S
O1069      C1076   1.270       .  A
O1069      V1073   1.915       .  S
O1070      C1075   1.273       .  A
O1070      V2897   1.930       .  S
O1071      C1074   1.275       .  A
O1071      V1073   1.938       .  S
V1072      O2889   1.926   1_455  S
V1072      O2891   1.914   1_455  S
V1072      V1073   2.075       .  T
V1073      O2892   1.874   1_455  S
V1073      O2894   1.930   1_455  S
C1074      N1085   1.489       .  S
C1076      N1078   1.477       .  S
C1077      C1278   1.482       .  S
N1078      C1082   1.398       .  A
N1078      C1079   1.382       .  A
C1079      C1080   1.388       .  A
C1080      C1081   1.336   1_455  A
C1080      H1083   1.081   1_455  S
C1081      C1082   1.374   1_655  A
C1081      H1084   1.082       .  S
N1085      C1089   1.366       .  A
N1085      C1086   1.404       .  A
C1086      C1316   1.473       .  S
C1086      C1087   1.376       .  A
C1087      C1088   1.341       .  A
C1087      H1090   1.085       .  S
C1088      C1089   1.372       .  A
C1088      H1091   1.077       .  S
C1089      C1154   1.466       .  S
N1092      C1096   1.351       .  A
N1092      C1093   1.364       .  A
N1092      C1110   1.444       .  S
C1093      C1328   1.479       .  S
C1093      C1094   1.392       .  A
C1094      C1095   1.350       .  A
C1094      H1097   1.066       .  S
C1095      C1096   1.365       .  A
C1095      H1098   1.083       .  S
C1096      C1270   1.446       .  S
O1099      C1109   1.270       .  A
O1100      C1110   1.258       .  A
O1100      V1107   1.899       .  S
O1102      C1112   1.257       .  A
O1102      V1107   1.886       .  S
O1103      C1112   1.262       .  A
O1103      V1108   1.876       .  S
O1104      C1111   1.257       .  A
O1104      V1108   1.875       .  S
O1105      C1110   1.276       .  A
O1105      V1108   1.924       .  S
O1106      C1109   1.273       .  A
V1107      V1108   2.075       .  T
C1111      C1229   1.438       .  S
C1112      C1131   1.468       .  S
O1113      V1121   1.906       .  S
O1114      C1124   1.276       .  A
O1114      V1121   1.937       .  S
O1115      C1125   1.260       .  A
O1115      V1121   1.878       .  S
O1116      C1126   1.255       .  A
O1117      C1126   1.272       .  A
O1118      C1125   1.271       .  A
O1118      V1122   1.920       .  S
O1119      C1124   1.249       .  A
O1119      V1122   1.855       .  S
O1120      C1123   1.250       .  A
V1121      V1122   2.081       .  T
C1123      C1257   1.445       .  S
C1124      N1127   1.448       .  S
C1125      N1134   1.446       .  S
N1127      C1131   1.370       .  A
N1127      C1128   1.352       .  A
C1128      C1129   1.387       .  A
C1129      C1130   1.351       .  A
C1129      H1132   1.079       .  S
C1130      C1131   1.376       .  A
C1130      H1133   1.081       .  S
N1134      C1138   1.346       .  A
N1134      C1135   1.346       .  A
C1135      C1311   1.505       .  S
C1135      C1136   1.401       .  A
C1136      C1137   1.365       .  A
C1136      H1139   1.082       .  S
C1137      C1138   1.373       .  A
C1137      H1140   1.082       .  S
C1138      C1200   1.436       .  S
O1141      C1151   1.275       .  A
O1141      V1149   1.936       .  S
O1142      C1152   1.269       .  A
O1142      V1149   1.920       .  S
O1143      C1153   1.273       .  A
O1143      V1149   1.932       .  S
O1144      C1154   1.265       .  A
O1144      V1605   1.925       .  S
O1145      C1154   1.259       .  A
O1145      V1606   1.865       .  S
O1146      C1153   1.259       .  A
O1146      V1150   1.859       .  S
O1147      C1152   1.271       .  A
O1147      V1150   1.914       .  S
O1148      C1151   1.257       .  A
O1148      V1150   1.883       .  S
V1149      O1600   1.925   1_554  S
V1149      V1150   2.077       .  T
V1150      O1601   1.862   1_554  S
C1151      N1611   1.453   1_554  S
C1152      N1302   1.462       .  S
C1153      N1183   1.446       .  S
N1155      C1159   1.373       .  A
N1155      C1156   1.360       .  A
N1155      C1607   1.453       .  S
C1156      C1157   1.391       .  A
C1157      C1158   1.341       .  A
C1157      H1160   1.075       .  S
C1158      C1159   1.367       .  A
C1158      H1161   1.082       .  S
O1162      C1172   1.269       .  A
O1162      V1170   1.890       .  S
O1163      C1173   1.271       .  A
O1163      V2994   1.926       .  S
O1164      C1174   1.258       .  A
O1164      V1170   1.890       .  S
O1165      C1175   1.254       .  A
O1165      V2994   1.874       .  S
O1166      C1175   1.265       .  A
O1166      V2995   1.894   1_455  S
O1167      C1174   1.267       .  A
O1167      V1171   1.897       .  S
O1168      C1173   1.269   1_655  A
O1168      V2995   1.924       .  S
O1169      C1172   1.259       .  A
O1169      V1171   1.905       .  S
V1170      O2987   1.924       .  S
V1170      O2989   1.875       .  S
V1170      V1171   2.085       .  T
V1171      O2990   1.896       .  S
V1171      O2992   1.924       .  S
C1172      C1180   1.475       .  S
C1173      N1288   1.463       .  S
C1175      C1187   1.446       .  S
N1176      C1180   1.375       .  A
N1176      C1177   1.373       .  A
C1177      C1178   1.384       .  A
C1178      C1179   1.343       .  A
C1178      H1181   1.081       .  S
C1179      C1180   1.375       .  A
C1179      H1182   1.082       .  S
N1183      C1187   1.365       .  A
N1183      C1184   1.362       .  A
C1184      C1352   1.481       .  S
C1184      C1185   1.380       .  A
C1185      C1186   1.359       .  A
C1185      H1188   1.077       .  S
C1186      C1187   1.356       .  A
C1186      H1189   1.079       .  S
O1190      C1200   1.261       .  A
O1190      V1198   1.880       .  S
O1191      C1201   1.263       .  A
O1191      V1654   1.897   1_554  S
O1192      C1202   1.252       .  A
O1192      V1198   1.852       .  S
O1193      C1203   1.254       .  A
O1193      V1654   1.863       .  S
O1194      C1203   1.262       .  A
O1194      V1655   1.899       .  S
O1195      C1202   1.268       .  A
O1195      V1199   1.895       .  S
O1196      C1201   1.262       .  A
O1196      V1655   1.891   1_554  S
O1197      C1200   1.255       .  A
O1197      V1199   1.866       .  S
V1198      O1647   1.899       .  S
V1198      O1649   1.860       .  S
V1198      V1199   2.083       .  T
V1199      O1650   1.901       .  S
V1199      O1652   1.892       .  S
C1201      C1236   1.460       .  S
C1202      N1204   1.412       .  S
C1203      C1306   1.446       .  S
N1204      C1664   1.338       .  A
N1204      C1205   1.334       .  A
C1205      C1206   1.394       .  A
C1206      C1207   1.374       .  A
C1206      H1209   1.073       .  S
C1207      C1664   1.372       .  A
C1207      H1666   1.083       .  S
C1208      N1660   1.337   1_554  A
C1208      C1663   1.372       .  A
H1210      C1663   1.082       .  S
O1211      C1221   1.270       .  A
O1212      C1222   1.266       .  A
O1212      V1219   1.895       .  S
O1213      C1223   1.260       .  A
O1213      V1219   1.898       .  S
O1214      C1224   1.262       .  A
O1214      V1219   1.874       .  S
O1215      C1224   1.276       .  A
O1215      V1220   1.954       .  S
O1216      C1223   1.286       .  A
O1216      V1220   1.977       .  S
O1217      C1222   1.266       .  A
O1217      V1220   1.900       .  S
O1218      C1221   1.260       .  A
V1219      V1220   2.078       .  T
C1222      N1232   1.448       .  S
C1223      N1295   1.479       .  S
N1225      C1226   1.372       .  A
C1226      C1227   1.384       .  A
C1227      C1228   1.344       .  A
C1227      H1230   1.079       .  S
C1228      H1231   1.076       .  S
N1232      C1236   1.356       .  A
N1232      C1233   1.358       .  A
C1233      C1326   1.498       .  S
C1233      C1234   1.382       .  A
C1234      C1235   1.371       .  A
C1234      H1237   1.079       .  S
C1235      C1236   1.370       .  A
C1235      H1238   1.082       .  S
O1239      C1249   1.277       .  A
O1239      V1247   1.922   1_565  S
O1240      C1250   1.270       .  A
O1241      C1251   1.271       .  A
O1241      V1247   1.912   1_565  S
O1242      C1252   1.261       .  A
O1243      C1252   1.271       .  A
O1244      C1251   1.267       .  A
O1244      V1248   1.917   1_565  S
O1245      C1250   1.267       .  A
O1246      C1249   1.258       .  A
O1246      V1248   1.908   1_565  S
V1247      V1248   2.082       .  T
C1250      N1281   1.460       .  S
C1251      N1253   1.457       .  S
C1252      C1299   1.494       .  S
N1253      C1257   1.353       .  A
N1253      C1254   1.361       .  A
C1254      C1255   1.394       .  A
C1255      C1256   1.359       .  A
C1255      H1258   1.079       .  S
C1256      C1257   1.369       .  A
C1256      H1259   1.083       .  S
O1260      C1270   1.255       .  A
O1260      V1268   1.848       .  S
O1261      C1271   1.258       .  A
O1261      V3092   1.837   1_455  S
O1262      C1272   1.264       .  A
O1262      V1268   1.923       .  S
O1263      C1273   1.268       .  A
O1263      V1268   1.913       .  S
O1264      C1273   1.268       .  A
O1264      V1269   1.905       .  S
O1265      C1272   1.274       .  A
O1265      V1269   1.898       .  S
O1266      C1271   1.261       .  A
O1266      V3093   1.904   1_455  S
O1267      C1270   1.261       .  A
O1267      V1269   1.888       .  S
V1268      O3085   1.838       .  S
V1268      V1269   2.061       .  T
V1269      O3090   1.903       .  S
C1271      C1285   1.453       .  S
C1272      C3116   1.493       .  S
C1273      N1274   1.450       .  S
N1274      C1278   1.370       .  A
N1274      C1275   1.371       .  A
C1275      C1276   1.383       .  A
C1276      C1277   1.357       .  A
C1276      H1279   1.077       .  S
C1277      C1278   1.375       .  A
C1277      H1280   1.083       .  S
N1281      C1285   1.354       .  A
N1281      C1282   1.378       .  A
C1282      C1314   1.470       .  S
C1282      C1283   1.386       .  A
C1283      C1284   1.361       .  A
C1283      H1286   1.080       .  S
C1284      C1285   1.373       .  A
C1284      H1287   1.077       .  S
N1288      C1292   1.383   1_455  A
N1288      C1289   1.376       .  A
C1289      C1290   1.381   1_455  A
C1290      C1291   1.350       .  A
C1290      H1293   1.080       .  S
C1291      C1292   1.379       .  A
C1291      H1294   1.083       .  S
C1292      C3096   1.492       .  S
N1295      C1299   1.387       .  A
N1295      C1296   1.380       .  A
C1296      C1297   1.387       .  A
C1297      C1298   1.340       .  A
C1297      H1300   1.082       .  S
C1298      C1299   1.373       .  A
C1298      H1301   1.084       .  S
N1302      C1306   1.344   1_554  A
N1302      C1303   1.361       .  A
C1303      C1304   1.396   1_554  A
C1304      C1305   1.374       .  A
C1304      H1307   1.083       .  S
C1305      C1306   1.380       .  A
C1305      H1308   1.079       .  S
C1309      C1310   1.507       .  S
C1309      C1315   1.481       .  S
C1309      C1313   1.579       .  S
C1309      C1359   1.497       .  S
C1310      C1311   1.344       .  D
C1310      H1317   1.082       .  S
C1311      C1312   1.545       .  S
C1312      C1316   1.598       .  S
C1312      C1314   1.529       .  S
C1312      H1318   1.112       .  S
C1313      C1314   1.397       .  D
C1313      H1319   1.085       .  S
C1315      C1316   1.334       .  D
C1315      H1320   1.089       .  S
C1321      C1322   1.511       .  S
C1321      C1327   1.523       .  S
C1321      C1325   1.515       .  S
C1321      C1362   1.505       .  S
C1322      C1323   1.349       .  D
C1322      H1329   1.078       .  S
C1323      C1324   1.565       .  S
C1324      C1328   1.556       .  S
C1324      C1326   1.578       .  S
C1324      H1330   1.110       .  S
C1325      C1326   1.383       .  D
C1325      H1331   1.083       .  S
C1327      C1328   1.366       .  D
C1327      H1332   1.088       .  S
C1333      C1334   1.533       .  S
C1333      C1339   1.541       .  S
C1333      C1337   1.594       .  S
C1333      C1357   1.631       .  S
C1334      C1335   1.380       .  D
C1334      H1341   1.084       .  S
C1335      C1336   1.540       .  S
C1336      C1340   1.567       .  S
C1336      C1338   1.549       .  S
C1336      H1342   1.102       .  S
C1337      C1338   1.403       .  D
C1337      H1343   1.085       .  S
C1339      C1340   1.367       .  D
C1339      H1344   1.088       .  S
C1345      C1346   1.505       .  S
C1345      C1351   1.531       .  S
C1345      C1349   1.543       .  S
C1345      C1364   1.544       .  S
C1346      C1347   1.370       .  D
C1346      H1353   1.079       .  S
C1347      C1348   1.560       .  S
C1348      C1352   1.525       .  S
C1348      C1350   1.560       .  S
C1348      H1354   1.110       .  S
C1349      C1350   1.378       .  D
C1349      H1355   1.086       .  S
C1351      C1352   1.359       .  D
C1351      H1356   1.065       .  S
C1357      C1358   1.538       .  S
C1357      C1363   1.565       .  S
C1357      C1361   1.547       .  S
C1358      C1359   1.397       .  D
C1358      H1365   1.086       .  S
C1359      C1360   1.480       .  S
C1360      C1364   1.530       .  S
C1360      C1362   1.507       .  S
C1360      H1366   1.086       .  S
C1361      C1362   1.371       .  D
C1361      H1367   1.086       .  S
C1363      C1364   1.395       .  D
C1363      H1368   1.085       .  S
C1369      C1370   1.492       .  S
C1369      C1375   1.566       .  S
C1369      C1373   1.523       .  S
C1369      C1417   1.594       .  S
C1370      C1371   1.390       .  D
C1371      C1372   1.581       .  S
C1371      C1759   1.534       .  S
C1372      C1376   1.538       .  S
C1372      C1374   1.594       .  S
C1372      H1378   1.110       .  S
C1373      C1374   1.369       .  D
C1374      C1752   1.522       .  S
C1375      C1376   1.362       .  D
C1375      H3204   1.085   1_455  S
C1376      C1745   1.501       .  S
H1380      C3199   1.085       .  S
C1381      C1382   1.519       .  S
C1381      C1387   1.513       .  S
C1381      C1385   1.504       .  S
C1381      C1419   1.483       .  S
C1382      C1383   1.373       .  D
C1383      C1384   1.551       .  S
C1383      C1584   1.476       .  S
C1384      C1388   1.545       .  S
C1384      C1386   1.575       .  S
C1384      H1390   1.110       .  S
C1385      C1386   1.362       .  D
C1385      H1391   1.090       .  S
C1386      C1731   1.478       .  S
C1387      C1388   1.351       .  D
C1388      C1661   1.485       .  S
C1393      C1394   1.527       .  S
C1393      C1399   1.519       .  S
C1393      C1397   1.529       .  S
C1393      C1422   1.508       .  S
C1394      C1395   1.351       .  D
C1394      H1401   1.090       .  S
C1395      C1396   1.577       .  S
C1395      C1633   1.500       .  S
C1396      C1400   1.579       .  S
C1396      C1398   1.525       .  S
C1396      H1402   1.105       .  S
C1397      C1398   1.334       .  D
C1397      H1403   1.065       .  S
C1398      C1486   1.461       .  S
C1399      C1400   1.375       .  D
C1400      C1682   1.488       .  S
C1405      C1406   1.505       .  S
C1405      C1411   1.554       .  S
C1405      C1409   1.566       .  S
C1405      C1424   1.536       .  S
C1406      C1407   1.353       .  D
C1407      C1408   1.573       .  S
C1407      C1612   1.482       .  S
C1408      C1412   1.542       .  S
C1408      C1410   1.534       .  S
C1408      H1414   1.103       .  S
C1409      C1410   1.378       .  D
C1409      H1415   1.086       .  S
C1410      C1710   1.500       .  S
C1411      C1412   1.372       .  D
C1411      H3240   1.074   1_455  S
C1412      C1535   1.518       .  S
H1416      C3235   1.074       .  S
C1417      C3242   1.539       .  S
C1417      C2333   1.541   1_455  S
C1418      C3241   1.537       .  S
C1420      C3248   1.502       .  S
C1420      H1426   1.060       .  S
C1421      C2329   1.540       .  S
C1421      C1422   1.347   1_545  D
C1421      H1427   1.084       .  S
C1423      H1428   1.084       .  S
C1424      C3244   1.501   1_455  S
N1429      C1433   1.400       .  A
N1429      C1430   1.385       .  A
N1429      C1519   1.465       .  S
C1430      C1796   1.513       .  S
C1430      C1431   1.386       .  A
C1431      C1432   1.328       .  A
C1431      H1434   1.078       .  S
C1432      C1433   1.378       .  A
C1432      H1435   1.082       .  S
C1433      C1565   1.522       .  S
N1436      C1440   1.370       .  A
N1436      C1437   1.379       .  A
N1436      C1467   1.488       .  S
C1437      C1794   1.547       .  S
C1437      C1438   1.398       .  A
C1438      C1439   1.354       .  A
C1438      H1441   1.077       .  S
C1439      C1440   1.365       .  A
C1439      H1442   1.080       .  S
C1440      C1582   1.472       .  S
N1443      C1447   1.371       .  A
N1443      C1444   1.364       .  A
N1443      C1468   1.465       .  S
C1444      C1803   1.508       .  S
C1444      C1445   1.391       .  A
C1445      C1446   1.348       .  A
C1445      H1448   1.080       .  S
C1446      C1447   1.365       .  A
C1446      H1449   1.082       .  S
C1447      C1677   1.482       .  S
N1450      C1454   1.355       .  A
N1450      C1451   1.357       .  A
N1450      C1482   1.434       .  S
C1451      C1779   1.513       .  S
C1451      C1452   1.403       .  A
C1452      C1453   1.364       .  A
C1452      H1455   1.079       .  S
C1453      C1454   1.373       .  A
C1453      H1456   1.082       .  S
C1454      C1630   1.468       .  S
O1457      C1467   1.278       .  A
O1458      C1468   1.276       .  A
O1458      V1465   1.933       .  S
O1459      C1469   1.253       .  A
O1460      C1470   1.265       .  A
O1460      V1465   1.903       .  S
O1461      C1470   1.270       .  A
O1461      V1466   1.936       .  S
O1462      C1469   1.266       .  A
O1463      C1468   1.268       .  A
O1463      V1466   1.921       .  S
O1464      C1467   1.275       .  A
V1465      V1466   2.081       .  T
C1469      C1615   1.457       .  S
C1470      N1485   1.460       .  S
O1471      C1481   1.265       .  A
O1472      C1482   1.266       .  A
O1472      V1479   1.886       .  S
O1473      C1483   1.259       .  A
O1473      V1479   1.886       .  S
O1474      C1484   1.261       .  A
O1474      V1479   1.886       .  S
O1475      C1484   1.254       .  A
O1475      V1480   1.868       .  S
O1476      C1483   1.255       .  A
O1476      V1480   1.849       .  S
O1477      C1482   1.263       .  A
O1477      V1480   1.892       .  S
O1478      C1481   1.261       .  A
V1479      V1480   2.086       .  T
C1481      C1493   1.483       .  S
C1483      C1489   1.448       .  S
C1484      C1664   1.446       .  S
N1485      C1489   1.359       .  A
N1485      C1486   1.361       .  A
C1486      C1487   1.381       .  A
C1487      C1488   1.344       .  A
C1487      H1490   1.077       .  S
C1488      C1489   1.379       .  A
C1488      H1491   1.083       .  S
N1492      C1496   1.380       .  A
N1492      C1493   1.375       .  A
N1492      C1531   1.468       .  S
C1493      C1494   1.371       .  A
C1494      C1495   1.360       .  A
C1494      H1497   1.082       .  S
C1495      C1496   1.390       .  A
C1495      H1498   1.082       .  S
C1496      C1791   1.514       .  S
N1499      C1503   1.381       .  A
N1499      C1500   1.376       .  A
N1499      C1518   1.478       .  S
C1500      C1806   1.500       .  S
C1500      C1501   1.387       .  A
C1501      C1502   1.354       .  A
C1501      H1504   1.081       .  S
C1502      C1503   1.372       .  A
C1502      H1505   1.082       .  S
C1503      C1705   1.495       .  S
O1506      C1516   1.281       .  A
O1506      V1514   1.959       .  S
O1507      C1517   1.284       .  A
O1507      V3338   1.916   1_455  S
O1508      C1518   1.258       .  A
O1508      V3338   1.890   1_455  S
O1509      C1519   1.252       .  A
O1509      V1514   1.882       .  S
O1510      C1519   1.288       .  A
O1510      V1515   1.978       .  S
O1511      C1518   1.290       .  A
O1511      V3339   1.986   1_455  S
O1512      C1517   1.251       .  A
O1512      V3339   1.907   1_455  S
O1513      C1516   1.264       .  A
O1513      V1515   1.912       .  S
V1514      O3331   1.916       .  S
V1514      O3332   1.889       .  S
V1514      V1515   2.077       .  T
V1515      O3335   1.986       .  S
V1515      O3336   1.907       .  S
C1516      N1632   1.473       .  S
C1517      C1538   1.494       .  S
O1520      C1530   1.278       .  A
O1520      V1528   1.960       .  S
O1521      C1531   1.273       .  A
O1521      V3352   1.926       .  S
O1522      C1532   1.279       .  A
O1522      V1528   1.963       .  S
O1523      C1533   1.264       .  A
O1523      V3352   1.914       .  S
O1524      C1533   1.261       .  A
O1524      V3353   1.874       .  S
O1525      C1532   1.270       .  A
O1525      V1529   1.916       .  S
O1526      C1531   1.272       .  A
O1526      V3353   1.930       .  S
O1527      C1530   1.275       .  A
O1527      V1529   1.941       .  S
V1528      O3345   1.925   1_455  S
V1528      O3347   1.913   1_455  S
V1528      V1529   2.076       .  T
V1529      O3348   1.875   1_455  S
V1529      O3350   1.930   1_455  S
C1530      N1541   1.489       .  S
C1532      N1534   1.477       .  S
C1533      C1734   1.483       .  S
N1534      C1538   1.398       .  A
N1534      C1535   1.382       .  A
C1535      C1536   1.387   1_455  A
C1536      C1537   1.335       .  A
C1536      H1539   1.082       .  S
C1537      C1538   1.374   1_655  A
C1537      H1540   1.082       .  S
N1541      C1545   1.365       .  A
N1541      C1542   1.404       .  A
C1542      C1772   1.474       .  S
C1542      C1543   1.376       .  A
C1543      C1544   1.341       .  A
C1543      H1546   1.085       .  S
C1544      C1545   1.372       .  A
C1544      H1547   1.077       .  S
C1545      C1610   1.466       .  S
N1548      C1552   1.351       .  A
N1548      C1549   1.364       .  A
N1548      C1566   1.444       .  S
C1549      C1784   1.479       .  S
C1549      C1550   1.394       .  A
C1550      C1551   1.351       .  A
C1550      H1553   1.067       .  S
C1551      C1552   1.366       .  A
C1551      H1554   1.083       .  S
C1552      C1726   1.446       .  S
O1555      C1565   1.270       .  A
O1556      C1566   1.258       .  A
O1556      V1563   1.900       .  S
O1558      C1568   1.258       .  A
O1558      V1563   1.887       .  S
O1559      C1568   1.262       .  A
O1559      V1564   1.875       .  S
O1560      C1567   1.258       .  A
O1560      V1564   1.876       .  S
O1561      C1566   1.276       .  A
O1561      V1564   1.926       .  S
O1562      C1565   1.273       .  A
V1563      V1564   2.077       .  T
C1567      C1685   1.440       .  S
C1568      C1587   1.470       .  S
O1569      V1577   1.910       .  S
O1570      C1580   1.277       .  A
O1570      V1577   1.940       .  S
O1571      C1581   1.260       .  A
O1571      V1577   1.876       .  S
O1572      C1582   1.255       .  A
O1573      C1582   1.272       .  A
O1574      C1581   1.271       .  A
O1574      V1578   1.919       .  S
O1575      C1580   1.249       .  A
O1575      V1578   1.859       .  S
O1576      C1579   1.251       .  A
V1577      V1578   2.079       .  T
C1579      C1713   1.450       .  S
C1580      N1583   1.450       .  S
C1581      N1590   1.445       .  S
N1583      C1587   1.371       .  A
N1583      C1584   1.355       .  A
C1584      C1585   1.386       .  A
C1585      C1586   1.350       .  A
C1585      H1588   1.078       .  S
C1586      C1587   1.376       .  A
C1586      H1589   1.082       .  S
N1590      C1594   1.346       .  A
N1590      C1591   1.345       .  A
C1591      C1767   1.504       .  S
C1591      C1592   1.401       .  A
C1592      C1593   1.365       .  A
C1592      H1595   1.082       .  S
C1593      C1594   1.373       .  A
C1593      H1596   1.082       .  S
C1594      C1656   1.435       .  S
O1597      C1607   1.275       .  A
O1597      V1605   1.936       .  S
O1598      C1608   1.269       .  A
O1598      V1605   1.920       .  S
O1599      C1609   1.273       .  A
O1599      V1605   1.931       .  S
O1600      C1610   1.266       .  A
O1601      C1610   1.258       .  A
O1602      C1609   1.260       .  A
O1602      V1606   1.861       .  S
O1603      C1608   1.270       .  A
O1603      V1606   1.911       .  S
O1604      C1607   1.257       .  A
O1604      V1606   1.883       .  S
V1605      V1606   2.075       .  T
C1608      N1758   1.461       .  S
C1609      N1639   1.445       .  S
N1611      C1615   1.372       .  A
N1611      C1612   1.360       .  A
C1612      C1613   1.392       .  A
C1613      C1614   1.341       .  A
C1613      H1616   1.074       .  S
C1614      C1615   1.367       .  A
C1614      H1617   1.082       .  S
O1618      C1628   1.270       .  A
O1618      V1626   1.893       .  S
O1619      C1629   1.271       .  A
O1619      V3450   1.924       .  S
O1620      C1630   1.258       .  A
O1620      V1626   1.890       .  S
O1621      C1631   1.254       .  A
O1621      V3450   1.875       .  S
O1622      C1631   1.266       .  A
O1622      V3451   1.896   1_455  S
O1623      C1630   1.267       .  A
O1623      V1627   1.896       .  S
O1624      C1629   1.269   1_655  A
O1624      V3451   1.924       .  S
O1625      C1628   1.259       .  A
O1625      V1627   1.904       .  S
V1626      O3443   1.926       .  S
V1626      O3445   1.874       .  S
V1626      V1627   2.086       .  T
V1627      O3446   1.894       .  S
V1627      O3448   1.924       .  S
C1628      C1636   1.475       .  S
C1629      N1744   1.462       .  S
C1631      C1643   1.448       .  S
N1632      C1636   1.375       .  A
N1632      C1633   1.370       .  A
C1633      C1634   1.385       .  A
C1634      C1635   1.344       .  A
C1634      H1637   1.081       .  S
C1635      C1636   1.375       .  A
C1635      H1638   1.082       .  S
N1639      C1643   1.366       .  A
N1639      C1640   1.362       .  A
C1640      C1808   1.481       .  S
C1640      C1641   1.381       .  A
C1641      C1642   1.359       .  A
C1641      H1644   1.077       .  S
C1642      C1643   1.357       .  A
C1642      H1645   1.079       .  S
O1646      C1656   1.260       .  A
O1646      V1654   1.878       .  S
O1647      C1657   1.263       .  A
O1648      C1658   1.253       .  A
O1648      V1654   1.855       .  S
O1649      C1659   1.253       .  A
O1650      C1659   1.263       .  A
O1651      C1658   1.267       .  A
O1651      V1655   1.894       .  S
O1652      C1657   1.262       .  A
O1653      C1656   1.256       .  A
O1653      V1655   1.866       .  S
V1654      V1655   2.083       .  T
C1657      C1692   1.463       .  S
C1658      N1660   1.413       .  S
C1659      C1762   1.445       .  S
N1660      C1661   1.335       .  A
C1661      C1662   1.395   1_556  A
C1662      C1663   1.374       .  A
C1662      H1665   1.073       .  S
O1667      C1677   1.270       .  A
O1668      C1678   1.266       .  A
O1668      V1675   1.896       .  S
O1669      C1679   1.261       .  A
O1669      V1675   1.899       .  S
O1670      C1680   1.262       .  A
O1670      V1675   1.874       .  S
O1671      C1680   1.275       .  A
O1671      V1676   1.952       .  S
O1672      C1679   1.285       .  A
O1672      V1676   1.976       .  S
O1673      C1678   1.266       .  A
O1673      V1676   1.900       .  S
O1674      C1677   1.260       .  A
V1675      V1676   2.078       .  T
C1678      N1688   1.448       .  S
C1679      N1751   1.479       .  S
N1681      C1682   1.372       .  A
C1682      C1683   1.383       .  A
C1683      C1684   1.346       .  A
C1683      H1686   1.079       .  S
C1684      H1687   1.075       .  S
N1688      C1692   1.357       .  A
N1688      C1689   1.359       .  A
C1689      C1782   1.500       .  S
C1689      C1690   1.383       .  A
C1690      C1691   1.371       .  A
C1690      H1693   1.078       .  S
C1691      C1692   1.371       .  A
C1691      H1694   1.082       .  S
O1695      C1705   1.278       .  A
O1695      V1703   1.926   1_565  S
O1696      C1706   1.271       .  A
O1697      C1707   1.271       .  A
O1697      V1703   1.912   1_565  S
O1698      C1708   1.260       .  A
O1699      C1708   1.271       .  A
O1700      C1707   1.268       .  A
O1700      V1704   1.919       .  S
O1701      C1706   1.267       .  A
O1702      C1705   1.259       .  A
O1702      V1704   1.911       .  S
V1703      V1704   2.082   1_545  T
C1706      N1737   1.462       .  S
C1707      N1709   1.458       .  S
C1708      C1755   1.491       .  S
N1709      C1713   1.355       .  A
N1709      C1710   1.362       .  A
C1710      C1711   1.394       .  A
C1711      C1712   1.359       .  A
C1711      H1714   1.079       .  S
C1712      C1713   1.369       .  A
C1712      H1715   1.083       .  S
O1716      C1726   1.255       .  A
O1716      V1724   1.847       .  S
O1717      C1727   1.258       .  A
O1717      V3548   1.838   1_455  S
O1718      C1728   1.264       .  A
O1718      V1724   1.922       .  S
O1719      C1729   1.267       .  A
O1719      V1724   1.912       .  S
O1720      C1729   1.268       .  A
O1720      V1725   1.907       .  S
O1721      C1728   1.275       .  A
O1721      V1725   1.900       .  S
O1722      C1727   1.261       .  A
O1722      V3549   1.903   1_455  S
O1723      C1726   1.261       .  A
O1723      V1725   1.888       .  S
V1724      O3541   1.837       .  S
V1724      V1725   2.060       .  T
V1725      O3546   1.904       .  S
C1727      C1741   1.453       .  S
C1728      C3572   1.492       .  S
C1729      N1730   1.449       .  S
N1730      C1734   1.370       .  A
N1730      C1731   1.371       .  A
C1731      C1732   1.382       .  A
C1732      C1733   1.356       .  A
C1732      H1735   1.077       .  S
C1733      C1734   1.375       .  A
C1733      H1736   1.083       .  S
N1737      C1741   1.355       .  A
N1737      C1738   1.380       .  A
C1738      C1770   1.472       .  S
C1738      C1739   1.386       .  A
C1739      C1740   1.360       .  A
C1739      H1742   1.080       .  S
C1740      C1741   1.372       .  A
C1740      H1743   1.078       .  S
N1744      C1748   1.383   1_455  A
N1744      C1745   1.376       .  A
C1745      C1746   1.380       .  A
C1746      C1747   1.350   1_455  A
C1746      H1749   1.080       .  S
C1747      C1748   1.380       .  A
C1747      H1750   1.083       .  S
C1748      C3552   1.493       .  S
N1751      C1755   1.386       .  A
N1751      C1752   1.379       .  A
C1752      C1753   1.388       .  A
C1753      C1754   1.340       .  A
C1753      H1756   1.082       .  S
C1754      C1755   1.372       .  A
C1754      H1757   1.083       .  S
N1758      C1762   1.344       .  A
N1758      C1759   1.359       .  A
C1759      C1760   1.397       .  A
C1760      C1761   1.375       .  A
C1760      H1763   1.084       .  S
C1761      C1762   1.380       .  A
C1761      H1764   1.079       .  S
C1765      C1766   1.505       .  S
C1765      C1771   1.482       .  S
C1765      C1769   1.580       .  S
C1765      C1815   1.498       .  S
C1766      C1767   1.343       .  D
C1766      H1773   1.082       .  S
C1767      C1768   1.546       .  S
C1768      C1772   1.599       .  S
C1768      C1770   1.529       .  S
C1768      H1774   1.112       .  S
C1769      C1770   1.397       .  D
C1769      H1775   1.085       .  S
C1771      C1772   1.335       .  D
C1771      H1776   1.089       .  S
C1777      C1778   1.512       .  S
C1777      C1783   1.523       .  S
C1777      C1781   1.516       .  S
C1777      C1818   1.507       .  S
C1778      C1779   1.349       .  D
C1778      H1785   1.078       .  S
C1779      C1780   1.565       .  S
C1780      C1784   1.557       .  S
C1780      C1782   1.580       .  S
C1780      H1786   1.110       .  S
C1781      C1782   1.384       .  D
C1781      H1787   1.083       .  S
C1783      C1784   1.365       .  D
C1783      H1788   1.088       .  S
C1789      C1790   1.534       .  S
C1789      C1795   1.541       .  S
C1789      C1793   1.594       .  S
C1789      C1813   1.632       .  S
C1790      C1791   1.380       .  D
C1790      H1797   1.084       .  S
C1791      C1792   1.539       .  S
C1792      C1796   1.566       .  S
C1792      C1794   1.550       .  S
C1792      H1798   1.102       .  S
C1793      C1794   1.402       .  D
C1793      H1799   1.085       .  S
C1795      C1796   1.368       .  D
C1795      H1800   1.087       .  S
C1801      C1802   1.503       .  S
C1801      C1807   1.530       .  S
C1801      C1805   1.545       .  S
C1801      C1820   1.543       .  S
C1802      C1803   1.368       .  D
C1802      H1809   1.079       .  S
C1803      C1804   1.561       .  S
C1804      C1808   1.526       .  S
C1804      C1806   1.561       .  S
C1804      H1810   1.110       .  S
C1805      C1806   1.379       .  D
C1805      H1811   1.085       .  S
C1807      C1808   1.359       .  D
C1807      H1812   1.064       .  S
C1813      C1814   1.539       .  S
C1813      C1819   1.565       .  S
C1813      C1817   1.547       .  S
C1814      C1815   1.397       .  D
C1814      H1821   1.086       .  S
C1815      C1816   1.480       .  S
C1816      C1820   1.530       .  S
C1816      C1818   1.508       .  S
C1816      H1822   1.086       .  S
C1817      C1818   1.372       .  D
C1817      H1823   1.086       .  S
C1819      C1820   1.395       .  D
C1819      H1824   1.085       .  S
C1825      C1826   1.492       .  S
C1825      C1831   1.566       .  S
C1825      C1829   1.523       .  S
C1825      C1873   1.594       .  S
C1826      C1827   1.390       .  D
C1826      H2289   1.082   1_554  S
C1827      C1828   1.581       .  S
C1827      C2215   1.534       .  S
C1828      C1832   1.538       .  S
C1828      C1830   1.594       .  S
C1828      H1834   1.110       .  S
C1829      C1830   1.369       .  D
C1829      H2747   1.087       .  S
C1830      C2208   1.522       .  S
C1831      C1832   1.362       .  D
C1832      C2201   1.500       .  S
H1833      C2282   1.082       .  S
H1835      C2741   1.087       .  S
C1837      C1838   1.518       .  S
C1837      C1843   1.514       .  S
C1837      C1841   1.504       .  S
C1837      C1875   1.483       .  S
C1838      C1839   1.373       .  D
C1838      H2757   1.076   1_545  S
C1839      C1840   1.552       .  S
C1839      C2040   1.476   1_545  S
C1840      C1844   1.545       .  S
C1840      C1842   1.575       .  S
C1840      H1846   1.110       .  S
C1841      C1842   1.362       .  D
C1841      H1847   1.090       .  S
C1842      C2187   1.478       .  S
C1843      C1844   1.352       .  D
C1843      H2304   1.086       .  S
C1844      C2117   1.486       .  S
H1845      C2750   1.077       .  S
H1848      C2299   1.087   1_554  S
C1849      C1850   1.527       .  S
C1849      C1855   1.519       .  S
C1849      C1853   1.530       .  S
C1849      C1878   1.507       .  S
C1850      C1851   1.351       .  D
C1850      H1857   1.090   1_655  S
C1851      C1852   1.576       .  S
C1851      C2089   1.500       .  S
C1852      C1856   1.579       .  S
C1852      C1854   1.526       .  S
C1852      H1858   1.105       .  S
C1853      C1854   1.334       .  D
C1853      H1859   1.067   1_554  S
C1854      C1942   1.460       .  S
C1855      C1856   1.375       .  D
C1855      H2772   1.078       .  S
C1856      C2138   1.487       .  S
H1860      C2767   1.078       .  S
C1861      C1862   1.505       .  S
C1861      C1867   1.555       .  S
C1861      C1865   1.566       .  S
C1861      C1880   1.536       .  S
C1862      C1863   1.354       .  D
C1862      H2325   1.090       .  S
C1863      C1864   1.573       .  S
C1863      C2068   1.482       .  S
C1864      C1868   1.542       .  S
C1864      C1866   1.534       .  S
C1864      H1870   1.103       .  S
C1865      C1866   1.377       .  D
C1865      H1871   1.086       .  S
C1866      C2166   1.500       .  S
C1867      C1868   1.372       .  D
C1868      C1991   1.518       .  S
H1869      C2318   1.090   1_554  S
C1873      C2791   1.575   1_544  S
C1874      C2331   1.373   1_455  D
C1874      H2337   1.085   1_455  S
C1875      C2788   1.495   1_545  S
C1875      C2330   1.373   1_655  D
C1876      C2787   1.495       .  S
C1876      C2334   1.524       .  S
C1876      H1882   1.060       .  S
C1877      C1878   1.348       .  D
C1877      H1883   1.084       .  S
C1878      C2332   1.523   1_554  S
C1879      C2785   1.575   1_556  S
C1879      C2336   1.392       .  D
C1879      H1884   1.084       .  S
C1880      C2335   1.393       .  D
H1881      C2330   1.085   1_655  S
N1885      C1889   1.400       .  A
N1885      C1886   1.385       .  A
N1885      C1975   1.465       .  S
C1886      C2252   1.513       .  S
C1886      C1887   1.386       .  A
C1887      C1888   1.328       .  A
C1887      H1890   1.078       .  S
C1888      C1889   1.378       .  A
C1888      H1891   1.082       .  S
C1889      C2021   1.522       .  S
N1892      C1896   1.370       .  A
N1892      C1893   1.379       .  A
N1892      C1923   1.488       .  S
C1893      C2250   1.547       .  S
C1893      C1894   1.398       .  A
C1894      C1895   1.355       .  A
C1894      H1897   1.077       .  S
C1895      C1896   1.365       .  A
C1895      H1898   1.080       .  S
C1896      C2038   1.473       .  S
N1899      C1903   1.370       .  A
N1899      C1900   1.364       .  A
N1899      C1924   1.465       .  S
C1900      C2259   1.508       .  S
C1900      C1901   1.391       .  A
C1901      C1902   1.348       .  A
C1901      H1904   1.080       .  S
C1902      C1903   1.365       .  A
C1902      H1905   1.082       .  S
C1903      C2133   1.481       .  S
N1906      C1910   1.355       .  A
N1906      C1907   1.357       .  A
N1906      C1938   1.434       .  S
C1907      C2235   1.514       .  S
C1907      C1908   1.403       .  A
C1908      C1909   1.364       .  A
C1908      H1911   1.079       .  S
C1909      C1910   1.372       .  A
C1909      H1912   1.082       .  S
C1910      C2086   1.468       .  S
O1913      C1923   1.278       .  A
O1913      V2377   1.961       .  S
O1914      C1924   1.276       .  A
O1914      V1921   1.933       .  S
O1915      C1925   1.253       .  A
O1915      V2377   1.881       .  S
O1916      C1926   1.265       .  A
O1916      V1921   1.903       .  S
O1917      C1926   1.270       .  A
O1917      V1922   1.934       .  S
O1918      C1925   1.266       .  A
O1918      V2378   1.879       .  S
O1919      C1924   1.268       .  A
O1919      V1922   1.921       .  S
O1920      C1923   1.275       .  A
O1920      V2378   1.930       .  S
V1921      O2369   1.958   1_554  S
V1921      O2371   1.883   1_554  S
V1921      V1922   2.081       .  T
V1922      O2374   1.879   1_554  S
V1922      O2376   1.930   1_554  S
C1925      C2071   1.457       .  S
C1926      N1941   1.460       .  S
O1927      C1937   1.265       .  A
O1927      V2391   1.912       .  S
O1928      C1938   1.266       .  A
O1928      V1935   1.887       .  S
O1929      C1939   1.258       .  A
O1929      V1935   1.886       .  S
O1930      C1940   1.261       .  A
O1930      V1935   1.885       .  S
O1931      C1940   1.254       .  A
O1931      V1936   1.869       .  S
O1932      C1939   1.256       .  A
O1932      V1936   1.851       .  S
O1933      C1938   1.262       .  A
O1933      V1936   1.891       .  S
O1934      C1937   1.261       .  A
O1934      V2392   1.910       .  S
V1935      O2383   1.908   1_554  S
V1935      V1936   2.086       .  T
V1936      O2390   1.909   1_554  S
C1937      C1949   1.484       .  S
C1939      C1945   1.448       .  S
C1940      C2120   1.446       .  S
N1941      C1945   1.359       .  A
N1941      C1942   1.360       .  A
C1942      C1943   1.381       .  A
C1943      C1944   1.345   1_554  A
C1943      H1946   1.077       .  S
C1944      C1945   1.379   1_556  A
C1944      H1947   1.083       .  S
N1948      C1952   1.380       .  A
N1948      C1949   1.376       .  A
N1948      C1987   1.468       .  S
C1949      C1950   1.371       .  A
C1950      C1951   1.360       .  A
C1950      H1953   1.083       .  S
C1951      C1952   1.390       .  A
C1951      H1954   1.081       .  S
C1952      C2247   1.514       .  S
N1955      C1959   1.381       .  A
N1955      C1956   1.376       .  A
N1955      C1974   1.478       .  S
C1956      C2262   1.500       .  S
C1956      C1957   1.387       .  A
C1957      C1958   1.354       .  A
C1957      H1960   1.081       .  S
C1958      C1959   1.372       .  A
C1958      H1961   1.082       .  S
C1959      C2161   1.494       .  S
O1962      C1972   1.281       .  A
O1962      V1970   1.960       .  S
O1963      C1973   1.284       .  A
O1964      C1974   1.258       .  A
O1965      C1975   1.252       .  A
O1965      V1970   1.882       .  S
O1966      C1975   1.288       .  A
O1966      V1971   1.978       .  S
O1967      C1974   1.290       .  A
O1968      C1973   1.251       .  A
O1969      C1972   1.265       .  A
O1969      V1971   1.914       .  S
V1970      V1971   2.077       .  T
C1972      N2088   1.474       .  S
C1973      C1994   1.494       .  S
O1976      C1986   1.277       .  A
O1976      V1984   1.960       .  S
O1977      C1987   1.273       .  A
O1978      C1988   1.279       .  A
O1978      V1984   1.963       .  S
O1979      C1989   1.264       .  A
O1980      C1989   1.262       .  A
O1981      C1988   1.270       .  A
O1981      V1985   1.915       .  S
O1982      C1987   1.272       .  A
O1983      C1986   1.276       .  A
O1983      V1985   1.941       .  S
V1984      V1985   2.076       .  T
C1986      N1997   1.489       .  S
C1988      N1990   1.477       .  S
C1989      C2190   1.482       .  S
N1990      C1994   1.398       .  A
N1990      C1991   1.382       .  A
C1991      C1992   1.387       .  A
C1992      C1993   1.335       .  A
C1992      H1995   1.082       .  S
C1993      C1994   1.374       .  A
C1993      H1996   1.082       .  S
N1997      C2001   1.365       .  A
N1997      C1998   1.404       .  A
C1998      C2228   1.474       .  S
C1998      C1999   1.376       .  A
C1999      C2000   1.341       .  A
C1999      H2002   1.085       .  S
C2000      C2001   1.372       .  A
C2000      H2003   1.077       .  S
C2001      C2066   1.466       .  S
N2004      C2008   1.351       .  A
N2004      C2005   1.364       .  A
N2004      C2022   1.444       .  S
C2005      C2240   1.480       .  S
C2005      C2006   1.393       .  A
C2006      C2007   1.351       .  A
C2006      H2009   1.067       .  S
C2007      C2008   1.365       .  A
C2007      H2010   1.083       .  S
C2008      C2182   1.446       .  S
O2011      C2021   1.270       .  A
O2011      V2931   1.880       .  S
O2012      C2022   1.258       .  A
O2012      V2019   1.899       .  S
O2013      C2935   1.259       .  A
O2013      V2931   1.877       .  S
O2014      C2024   1.258       .  A
O2014      V2019   1.887       .  S
O2015      C2024   1.262       .  A
O2015      V2020   1.876       .  S
O2016      C2023   1.258       .  A
O2016      V2020   1.877       .  S
O2017      C2022   1.276       .  A
O2017      V2020   1.926       .  S
O2018      C2021   1.273       .  A
O2018      V2932   1.964       .  S
V2019      O2923   1.879   1_545  S
V2019      O2925   1.878       .  S
V2019      V2020   2.077       .  T
V2020      O2930   1.964   1_545  S
C2023      C2141   1.440   1_545  S
C2023      O2925   1.259       .  A
C2024      C2043   1.471       .  S
O2025      C2947   1.269       .  A
O2025      V2033   1.910       .  S
O2026      C2036   1.277       .  A
O2026      V2033   1.940   1_545  S
O2027      C2037   1.260       .  A
O2027      V2033   1.876   1_545  S
O2028      C2038   1.255       .  A
O2028      V2945   1.893       .  S
O2029      C2038   1.273       .  A
O2029      V2946   1.913       .  S
O2030      C2037   1.271       .  A
O2030      V2034   1.919   1_545  S
O2031      C2036   1.249       .  A
O2031      V2034   1.859   1_545  S
O2032      C2035   1.250       .  A
O2032      V2946   1.866       .  S
V2033      O2940   1.893       .  S
V2033      V2034   2.079       .  T
V2034      O2941   1.913       .  S
V2034      O2944   1.866       .  S
C2035      C2169   1.450       .  S
C2035      O2937   1.269       .  A
C2036      N2039   1.450       .  S
C2037      N2046   1.445       .  S
N2039      C2043   1.372       .  A
N2039      C2040   1.355   1_545  A
C2040      C2041   1.387       .  A
C2041      C2042   1.350       .  A
C2041      H2044   1.078       .  S
C2042      C2043   1.376   1_565  A
C2042      H2045   1.082       .  S
N2046      C2050   1.346       .  A
N2046      C2047   1.345       .  A
C2047      C2223   1.504       .  S
C2047      C2048   1.401       .  A
C2048      C2049   1.365       .  A
C2048      H2051   1.082       .  S
C2049      C2050   1.372       .  A
C2049      H2052   1.082       .  S
C2050      C2112   1.435       .  S
O2053      C2063   1.275       .  A
O2053      V2061   1.936       .  S
O2054      C2064   1.269       .  A
O2054      V2061   1.920       .  S
O2055      C2065   1.273       .  A
O2055      V2061   1.931       .  S
O2056      C2066   1.266       .  A
O2056      V2517   1.925       .  S
O2057      C2066   1.258       .  A
O2057      V2518   1.861       .  S
O2058      C2065   1.260       .  A
O2058      V2062   1.861       .  S
O2059      C2064   1.270       .  A
O2059      V2062   1.911       .  S
O2060      C2063   1.257       .  A
O2060      V2062   1.882       .  S
V2061      O2512   1.925   1_554  S
V2061      V2062   2.075       .  T
V2062      O2513   1.866   1_554  S
C2063      N2523   1.452   1_554  S
C2064      N2214   1.461       .  S
C2065      N2095   1.445       .  S
N2067      C2071   1.372       .  A
N2067      C2068   1.360       .  A
N2067      C2519   1.453       .  S
C2068      C2069   1.392       .  A
C2069      C2070   1.341       .  A
C2069      H2072   1.074       .  S
C2070      C2071   1.367       .  A
C2070      H2073   1.082       .  S
O2074      C2084   1.270       .  A
O2074      V2082   1.892       .  S
O2075      C2085   1.271       .  A
O2076      C2086   1.258       .  A
O2076      V2082   1.890   1_655  S
O2077      C2087   1.254       .  A
O2078      C2087   1.266       .  A
O2079      C2086   1.267       .  A
O2079      V2083   1.895       .  S
O2080      C2085   1.269       .  A
O2081      C2084   1.259   1_655  A
O2081      V2083   1.905       .  S
V2082      V2083   2.086   1_455  T
C2084      C2092   1.476       .  S
C2085      N2200   1.462       .  S
C2087      C2099   1.448       .  S
N2088      C2092   1.375   1_655  A
N2088      C2089   1.371       .  A
C2089      C2090   1.384   1_655  A
C2090      C2091   1.344       .  A
C2090      H2093   1.081       .  S
C2091      C2092   1.375       .  A
C2091      H2094   1.082       .  S
N2095      C2099   1.366       .  A
N2095      C2096   1.362       .  A
C2096      C2264   1.481       .  S
C2096      C2097   1.381       .  A
C2097      C2098   1.359       .  A
C2097      H2100   1.077       .  S
C2098      C2099   1.358       .  A
C2098      H2101   1.079       .  S
O2102      C2112   1.260       .  A
O2102      V2110   1.878       .  S
O2103      C2113   1.263       .  A
O2103      V2566   1.899   1_554  S
O2104      C2114   1.253       .  A
O2104      V2110   1.854       .  S
O2105      C2115   1.253       .  A
O2105      V2566   1.860       .  S
O2106      C2115   1.263       .  A
O2106      V2567   1.901       .  S
O2107      C2114   1.267       .  A
O2107      V2111   1.895       .  S
O2108      C2113   1.262       .  A
O2108      V2567   1.892   1_554  S
O2109      C2112   1.256       .  A
O2109      V2111   1.866       .  S
V2110      O2559   1.897       .  S
V2110      O2561   1.862       .  S
V2110      V2111   2.083       .  T
V2111      O2562   1.900       .  S
V2111      O2564   1.892       .  S
C2113      C2148   1.462       .  S
C2114      N2116   1.413       .  S
C2115      C2218   1.445       .  S
N2116      C2576   1.337       .  A
N2116      C2117   1.335       .  A
C2117      C2118   1.394       .  A
C2118      C2119   1.374       .  A
C2118      H2121   1.073       .  S
C2119      C2576   1.372       .  A
C2119      H2578   1.082       .  S
C2120      N2572   1.338   1_554  A
C2120      C2575   1.372       .  A
H2122      C2575   1.083       .  S
O2123      C2133   1.270       .  A
O2123      V3043   1.892       .  S
O2124      C2134   1.266       .  A
O2124      V2131   1.896       .  S
O2125      C2135   1.261       .  A
O2125      V2131   1.899       .  S
O2126      C2136   1.262   1_545  A
O2126      V2131   1.875       .  S
O2127      C2136   1.275       .  A
O2127      V2132   1.952   1_565  S
O2128      C2135   1.285       .  A
O2128      V2132   1.976       .  S
O2129      C2134   1.266       .  A
O2129      V2132   1.900       .  S
O2130      C2133   1.260       .  A
O2130      V3044   1.912       .  S
V2131      O3035   1.891   1_545  S
V2131      V2132   2.078       .  T
V2132      O3042   1.912   1_545  S
C2134      N2144   1.448       .  S
C2135      N2207   1.479       .  S
C2136      N3049   1.462       .  S
N2137      C3053   1.352       .  A
N2137      C2138   1.372       .  A
N2137      C3048   1.462       .  S
C2138      C2139   1.383       .  A
C2139      C2140   1.346       .  A
C2139      H2142   1.079       .  S
C2140      C3053   1.369       .  A
C2140      H2143   1.075       .  S
C2141      N3049   1.353       .  A
C2141      C3052   1.369       .  A
N2144      C2148   1.357       .  A
N2144      C2145   1.359       .  A
C2145      C2238   1.500       .  S
C2145      C2146   1.384       .  A
C2146      C2147   1.371       .  A
C2146      H2149   1.079       .  S
C2147      C2148   1.371       .  A
C2147      H2150   1.082       .  S
O2151      C2161   1.278       .  A
O2151      V2159   1.925       .  S
O2152      C2162   1.271       .  A
O2152      V3071   1.954       .  S
O2153      C2163   1.271       .  A
O2153      V2159   1.912       .  S
O2154      C2164   1.260       .  A
O2154      V3071   1.911       .  S
O2155      C2164   1.271       .  A
O2155      V3072   1.895   1_545  S
O2156      C2163   1.268       .  A
O2156      V2160   1.920       .  S
O2157      C2162   1.267       .  A
O2157      V3072   1.880   1_545  S
O2158      C2161   1.259       .  A
O2158      V2160   1.910       .  S
V2159      O3064   1.954       .  S
V2159      O3066   1.911       .  S
V2159      V2160   2.082       .  T
V2160      O3067   1.895       .  S
V2160      O3069   1.881       .  S
C2162      N2193   1.462       .  S
C2163      N2165   1.458       .  S
C2164      C2211   1.491       .  S
N2165      C2169   1.355       .  A
N2165      C2166   1.362       .  A
C2166      C2167   1.394       .  A
C2167      C2168   1.359       .  A
C2167      H2170   1.079       .  S
C2168      C2169   1.369       .  A
C2168      H2171   1.083       .  S
O2172      C2182   1.255       .  A
O2172      V2180   1.847       .  S
O2173      C2183   1.258       .  A
O2174      C2184   1.264       .  A
O2174      V2180   1.922       .  S
O2175      C2185   1.267       .  A
O2175      V2180   1.912       .  S
O2176      C2185   1.268       .  A
O2176      V2181   1.907       .  S
O2177      C2184   1.275       .  A
O2177      V2181   1.900       .  S
O2178      C2183   1.261       .  A
O2179      C2182   1.261       .  A
O2179      V2181   1.888       .  S
V2180      V2181   2.060       .  T
C2183      C2197   1.453       .  S
C2185      N2186   1.449       .  S
N2186      C2190   1.370       .  A
N2186      C2187   1.371       .  A
C2187      C2188   1.383       .  A
C2188      C2189   1.357       .  A
C2188      H2191   1.077       .  S
C2189      C2190   1.375       .  A
C2189      H2192   1.083       .  S
N2193      C2197   1.355       .  A
N2193      C2194   1.379       .  A
C2194      C2226   1.472       .  S
C2194      C2195   1.386       .  A
C2195      C2196   1.360       .  A
C2195      H2198   1.079       .  S
C2196      C2197   1.372       .  A
C2196      H2199   1.078       .  S
N2200      C2204   1.383       .  A
N2200      C2201   1.376       .  A
C2201      C2202   1.380       .  A
C2202      C2203   1.350       .  A
C2202      H2205   1.080       .  S
C2203      C2204   1.380       .  A
C2203      H2206   1.083       .  S
N2207      C2211   1.385       .  A
N2207      C2208   1.378       .  A
C2208      C2209   1.389       .  A
C2209      C2210   1.340       .  A
C2209      H2212   1.082   1_545  S
C2210      C2211   1.372       .  A
C2210      H2213   1.083   1_545  S
N2214      C2218   1.344   1_554  A
N2214      C2215   1.359       .  A
C2215      C2216   1.397   1_554  A
C2216      C2217   1.375       .  A
C2216      H2219   1.084       .  S
C2217      C2218   1.380       .  A
C2217      H2220   1.079       .  S
C2221      C2222   1.506       .  S
C2221      C2227   1.482       .  S
C2221      C2225   1.580       .  S
C2221      C2271   1.497       .  S
C2222      C2223   1.343       .  D
C2222      H2229   1.081       .  S
C2223      C2224   1.546       .  S
C2224      C2228   1.598       .  S
C2224      C2226   1.529       .  S
C2224      H2230   1.112       .  S
C2225      C2226   1.397       .  D
C2225      H2231   1.085       .  S
C2227      C2228   1.335       .  D
C2227      H2232   1.088       .  S
C2233      C2234   1.512       .  S
C2233      C2239   1.523       .  S
C2233      C2237   1.515       .  S
C2233      C2274   1.507       .  S
C2234      C2235   1.349       .  D
C2234      H2241   1.078       .  S
C2235      C2236   1.565       .  S
C2236      C2240   1.557       .  S
C2236      C2238   1.580       .  S
C2236      H2242   1.110       .  S
C2237      C2238   1.384       .  D
C2237      H2243   1.083       .  S
C2239      C2240   1.366       .  D
C2239      H2244   1.088       .  S
C2245      C2246   1.534       .  S
C2245      C2251   1.541       .  S
C2245      C2249   1.594       .  S
C2245      C2269   1.632       .  S
C2246      C2247   1.380       .  D
C2246      H2253   1.084       .  S
C2247      C2248   1.540       .  S
C2248      C2252   1.567       .  S
C2248      C2250   1.550       .  S
C2248      H2254   1.102       .  S
C2249      C2250   1.403       .  D
C2249      H2255   1.085       .  S
C2251      C2252   1.368       .  D
C2251      H2256   1.087       .  S
C2257      C2258   1.504       .  S
C2257      C2263   1.530       .  S
C2257      C2261   1.544       .  S
C2257      C2276   1.543       .  S
C2258      C2259   1.369       .  D
C2258      H2265   1.079       .  S
C2259      C2260   1.561       .  S
C2260      C2264   1.526       .  S
C2260      C2262   1.561       .  S
C2260      H2266   1.110       .  S
C2261      C2262   1.379       .  D
C2261      H2267   1.085       .  S
C2263      C2264   1.359       .  D
C2263      H2268   1.065       .  S
C2269      C2270   1.539       .  S
C2269      C2275   1.565       .  S
C2269      C2273   1.547       .  S
C2270      C2271   1.397       .  D
C2270      H2277   1.086       .  S
C2271      C2272   1.480       .  S
C2272      C2276   1.530       .  S
C2272      C2274   1.508       .  S
C2272      H2278   1.087       .  S
C2273      C2274   1.372       .  D
C2273      H2279   1.086       .  S
C2275      C2276   1.395       .  D
C2275      H2280   1.085       .  S
C2281      C2282   1.494       .  S
C2281      C2287   1.565       .  S
C2281      C2285   1.524       .  S
C2281      C2329   1.595       .  S
C2282      C2283   1.391       .  D
C2283      C2284   1.581       .  S
C2283      C2671   1.536       .  S
C2284      C2288   1.539       .  S
C2284      C2286   1.594       .  S
C2284      H2290   1.110       .  S
C2285      C2286   1.370       .  D
C2285      H3203   1.087       .  S
C2286      C2664   1.523       .  S
C2287      C2288   1.361       .  D
C2288      C2657   1.501       .  S
H2291      C3197   1.087       .  S
C2293      C2294   1.518       .  S
C2293      C2299   1.513       .  S
C2293      C2297   1.504       .  S
C2293      C2331   1.481       .  S
C2294      C2295   1.372       .  D
C2294      H3213   1.077   1_545  S
C2295      C2296   1.552       .  S
C2295      C2496   1.473   1_545  S
C2296      C2300   1.543       .  S
C2296      C2298   1.576       .  S
C2296      H2302   1.110       .  S
C2297      C2298   1.361       .  D
C2297      H2303   1.090       .  S
C2298      C2643   1.478       .  S
C2299      C2300   1.351       .  D
C2300      C2573   1.484       .  S
H2301      C3206   1.077       .  S
C2305      C2306   1.527       .  S
C2305      C2311   1.521       .  S
C2305      C2309   1.531       .  S
C2305      C2334   1.508       .  S
C2306      C2307   1.351       .  D
C2306      H2313   1.090   1_655  S
C2307      C2308   1.575       .  S
C2307      C2545   1.499       .  S
C2308      C2312   1.578       .  S
C2308      C2310   1.526       .  S
C2308      H2314   1.105       .  S
C2309      C2310   1.334       .  D
C2309      H2315   1.068       .  S
C2310      C2398   1.462       .  S
C2311      C2312   1.376       .  D
C2311      H3228   1.078       .  S
C2312      C2594   1.488       .  S
H2316      C3223   1.078       .  S
C2317      C2318   1.505       .  S
C2317      C2323   1.556       .  S
C2317      C2321   1.566       .  S
C2317      C2336   1.537       .  S
C2318      C2319   1.354       .  D
C2319      C2320   1.572       .  S
C2319      C2524   1.482       .  S
C2320      C2324   1.542       .  S
C2320      C2322   1.533       .  S
C2320      H2326   1.103       .  S
C2321      C2322   1.378       .  D
C2321      H2327   1.086       .  S
C2322      C2622   1.499       .  S
C2323      C2324   1.371       .  D
C2324      C2447   1.519       .  S
C2329      C3247   1.576   1_545  S
C2331      C3244   1.494   1_545  S
C2332      C3243   1.495       .  S
C2332      H2338   1.060       .  S
C2333      C2334   1.348       .  D
C2333      H2339   1.084       .  S
C2335      C3241   1.575       .  S
C2335      H2340   1.085       .  S
N2341      C2345   1.400       .  A
N2341      C2342   1.385       .  A
N2341      C2431   1.465       .  S
C2342      C2708   1.514       .  S
C2342      C2343   1.387       .  A
C2343      C2344   1.328       .  A
C2343      H2346   1.078       .  S
C2344      C2345   1.378       .  A
C2344      H2347   1.083       .  S
C2345      C2477   1.521       .  S
N2348      C2352   1.369       .  A
N2348      C2349   1.378       .  A
N2348      C2379   1.486       .  S
C2349      C2706   1.545       .  S
C2349      C2350   1.398       .  A
C2350      C2351   1.354       .  A
C2350      H2353   1.078       .  S
C2351      C2352   1.365       .  A
C2351      H2354   1.080       .  S
C2352      C2494   1.471       .  S
N2355      C2359   1.371       .  A
N2355      C2356   1.365       .  A
N2355      C2380   1.465       .  S
C2356      C2715   1.507       .  S
C2356      C2357   1.390       .  A
C2357      C2358   1.348       .  A
C2357      H2360   1.079       .  S
C2358      C2359   1.365       .  A
C2358      H2361   1.081       .  S
C2359      C2589   1.482       .  S
N2362      C2366   1.356       .  A
N2362      C2363   1.356       .  A
N2362      C2394   1.434       .  S
C2363      C2691   1.513       .  S
C2363      C2364   1.403       .  A
C2364      C2365   1.364       .  A
C2364      H2367   1.079       .  S
C2365      C2366   1.373       .  A
C2365      H2368   1.082       .  S
C2366      C2542   1.469       .  S
O2369      C2379   1.277       .  A
O2370      C2380   1.276       .  A
O2370      V2377   1.935       .  S
O2371      C2381   1.253       .  A
O2372      C2382   1.265       .  A
O2372      V2377   1.902       .  S
O2373      C2382   1.269       .  A
O2373      V2378   1.931       .  S
O2374      C2381   1.266       .  A
O2375      C2380   1.268       .  A
O2375      V2378   1.922       .  S
O2376      C2379   1.275       .  A
V2377      V2378   2.081       .  T
C2381      C2527   1.459       .  S
C2382      N2397   1.458       .  S
O2383      C2393   1.264       .  A
O2384      C2394   1.266       .  A
O2384      V2391   1.888       .  S
O2385      C2395   1.259       .  A
O2385      V2391   1.887       .  S
O2386      C2396   1.261       .  A
O2386      V2391   1.886       .  S
O2387      C2396   1.254       .  A
O2387      V2392   1.867       .  S
O2388      C2395   1.255       .  A
O2388      V2392   1.848       .  S
O2389      C2394   1.262       .  A
O2389      V2392   1.891       .  S
O2390      C2393   1.261       .  A
V2391      V2392   2.086       .  T
C2393      C2405   1.480       .  S
C2395      C2401   1.448       .  S
C2396      C2576   1.445       .  S
N2397      C2401   1.359       .  A
N2397      C2398   1.360       .  A
C2398      C2399   1.380       .  A
C2399      C2400   1.344       .  A
C2399      H2402   1.077       .  S
C2400      C2401   1.379       .  A
C2400      H2403   1.083       .  S
N2404      C2408   1.380       .  A
N2404      C2405   1.374       .  A
N2404      C2443   1.468       .  S
C2405      C2406   1.371       .  A
C2406      C2407   1.360       .  A
C2406      H2409   1.082       .  S
C2407      C2408   1.390       .  A
C2407      H2410   1.082       .  S
C2408      C2703   1.514       .  S
N2411      C2415   1.381       .  A
N2411      C2412   1.375       .  A
N2411      C2430   1.478       .  S
C2412      C2718   1.499       .  S
C2412      C2413   1.387       .  A
C2413      C2414   1.354       .  A
C2413      H2416   1.081       .  S
C2414      C2415   1.371       .  A
C2414      H2417   1.081       .  S
C2415      C2617   1.492       .  S
O2418      C2428   1.281       .  A
O2418      V2426   1.962       .  S
O2419      C2429   1.284       .  A
O2420      C2430   1.257       .  A
O2421      C2431   1.252       .  A
O2421      V2426   1.882       .  S
O2422      C2431   1.288       .  A
O2422      V2427   1.977       .  S
O2423      C2430   1.290       .  A
O2424      C2429   1.251       .  A
O2425      C2428   1.264       .  A
O2425      V2427   1.912       .  S
V2426      V2427   2.077       .  T
C2428      N2544   1.475       .  S
C2429      C2450   1.494       .  S
O2432      C2442   1.278       .  A
O2432      V2440   1.962       .  S
O2433      C2443   1.272       .  A
O2434      C2444   1.279       .  A
O2434      V2440   1.964       .  S
O2435      C2445   1.264       .  A
O2436      C2445   1.261       .  A
O2437      C2444   1.270       .  A
O2437      V2441   1.916       .  S
O2438      C2443   1.273       .  A
O2439      C2442   1.275       .  A
O2439      V2441   1.938       .  S
V2440      V2441   2.075       .  T
C2442      N2453   1.489       .  S
C2444      N2446   1.477       .  S
C2445      C2646   1.482       .  S
N2446      C2450   1.398       .  A
N2446      C2447   1.382       .  A
C2447      C2448   1.388       .  A
C2448      C2449   1.336       .  A
C2448      H2451   1.081       .  S
C2449      C2450   1.375       .  A
C2449      H2452   1.082       .  S
N2453      C2457   1.366       .  A
N2453      C2454   1.404       .  A
C2454      C2684   1.473       .  S
C2454      C2455   1.376       .  A
C2455      C2456   1.341       .  A
C2455      H2458   1.086       .  S
C2456      C2457   1.372       .  A
C2456      H2459   1.077       .  S
C2457      C2522   1.466       .  S
N2460      C2464   1.351       .  A
N2460      C2461   1.364       .  A
N2460      C2478   1.444       .  S
C2461      C2696   1.479       .  S
C2461      C2462   1.393       .  A
C2462      C2463   1.350       .  A
C2462      H2465   1.066       .  S
C2463      C2464   1.365       .  A
C2463      H2466   1.083       .  S
C2464      C2638   1.446       .  S
O2467      C2477   1.270       .  A
O2467      V3387   1.881       .  S
O2468      C2478   1.258       .  A
O2468      V2475   1.899       .  S
O2469      C3391   1.260       .  A
O2469      V3387   1.877       .  S
O2470      C2480   1.257       .  A
O2470      V2475   1.886       .  S
O2471      C2480   1.261       .  A
O2471      V2476   1.876       .  S
O2472      C2479   1.257       .  A
O2472      V2476   1.874       .  S
O2473      C2478   1.276       .  A
O2473      V2476   1.925       .  S
O2474      C2477   1.273       .  A
O2474      V3388   1.963       .  S
V2475      O3379   1.881   1_545  S
V2475      O3381   1.877       .  S
V2475      V2476   2.076       .  T
V2476      O3386   1.963   1_545  S
C2479      C2597   1.438   1_545  S
C2479      O3381   1.259       .  A
C2480      C2499   1.469       .  S
O2481      C3403   1.268       .  A
O2481      V2489   1.907       .  S
O2482      C2492   1.276       .  A
O2482      V2489   1.937   1_545  S
O2483      C2493   1.261       .  A
O2483      V2489   1.879   1_545  S
O2484      C2494   1.255       .  A
O2484      V3401   1.893       .  S
O2485      C2494   1.272       .  A
O2485      V3402   1.912       .  S
O2486      C2493   1.271       .  A
O2486      V2490   1.920   1_545  S
O2487      C2492   1.249       .  A
O2487      V2490   1.855   1_545  S
O2488      C2491   1.250       .  A
O2488      V3402   1.863       .  S
V2489      O3396   1.894       .  S
V2489      V2490   2.080       .  T
V2490      O3397   1.913       .  S
V2490      O3400   1.863       .  S
C2491      C2625   1.445       .  S
C2491      O3393   1.268       .  A
C2492      N2495   1.449       .  S
C2493      N2502   1.447       .  S
N2495      C2499   1.370       .  A
N2495      C2496   1.353   1_545  A
C2496      C2497   1.387       .  A
C2497      C2498   1.351       .  A
C2497      H2500   1.079       .  S
C2498      C2499   1.376   1_565  A
C2498      H2501   1.082       .  S
N2502      C2506   1.346       .  A
N2502      C2503   1.346       .  A
C2503      C2679   1.506       .  S
C2503      C2504   1.401       .  A
C2504      C2505   1.365       .  A
C2504      H2507   1.082       .  S
C2505      C2506   1.373       .  A
C2505      H2508   1.082       .  S
C2506      C2568   1.436       .  S
O2509      C2519   1.274       .  A
O2509      V2517   1.936       .  S
O2510      C2520   1.269       .  A
O2510      V2517   1.920       .  S
O2511      C2521   1.273       .  A
O2511      V2517   1.932       .  S
O2512      C2522   1.266       .  A
O2513      C2522   1.259       .  A
O2514      C2521   1.259       .  A
O2514      V2518   1.859       .  S
O2515      C2520   1.271       .  A
O2515      V2518   1.915       .  S
O2516      C2519   1.257       .  A
O2516      V2518   1.883       .  S
V2517      V2518   2.077       .  T
C2520      N2670   1.462       .  S
C2521      N2551   1.446       .  S
N2523      C2527   1.372       .  A
N2523      C2524   1.360       .  A
C2524      C2525   1.392       .  A
C2525      C2526   1.341       .  A
C2525      H2528   1.075       .  S
C2526      C2527   1.367       .  A
C2526      H2529   1.082       .  S
O2530      C2540   1.269       .  A
O2530      V2538   1.890       .  S
O2531      C2541   1.271       .  A
O2532      C2542   1.258       .  A
O2532      V2538   1.890   1_655  S
O2533      C2543   1.254       .  A
O2534      C2543   1.265       .  A
O2535      C2542   1.267       .  A
O2535      V2539   1.897       .  S
O2536      C2541   1.269       .  A
O2537      C2540   1.259   1_655  A
O2537      V2539   1.905       .  S
V2538      V2539   2.085   1_455  T
C2540      C2548   1.475       .  S
C2541      N2656   1.463       .  S
C2543      C2555   1.446       .  S
N2544      C2548   1.375   1_655  A
N2544      C2545   1.373       .  A
C2545      C2546   1.384   1_655  A
C2546      C2547   1.343       .  A
C2546      H2549   1.081       .  S
C2547      C2548   1.375       .  A
C2547      H2550   1.082       .  S
N2551      C2555   1.365       .  A
N2551      C2552   1.362       .  A
C2552      C2720   1.481       .  S
C2552      C2553   1.381       .  A
C2553      C2554   1.359       .  A
C2553      H2556   1.077       .  S
C2554      C2555   1.356       .  A
C2554      H2557   1.079       .  S
O2558      C2568   1.261       .  A
O2558      V2566   1.880       .  S
O2559      C2569   1.263       .  A
O2560      C2570   1.252       .  A
O2560      V2566   1.852       .  S
O2561      C2571   1.254       .  A
O2562      C2571   1.263       .  A
O2563      C2570   1.268       .  A
O2563      V2567   1.894       .  S
O2564      C2569   1.262       .  A
O2565      C2568   1.255       .  A
O2565      V2567   1.866       .  S
V2566      V2567   2.084       .  T
C2569      C2604   1.461       .  S
C2570      N2572   1.412       .  S
C2571      C2674   1.446       .  S
N2572      C2573   1.334       .  A
C2573      C2574   1.394   1_556  A
C2574      C2575   1.374       .  A
C2574      H2577   1.073       .  S
O2579      C2589   1.270       .  A
O2579      V3499   1.891       .  S
O2580      C2590   1.266       .  A
O2580      V2587   1.895       .  S
O2581      C2591   1.261       .  A
O2581      V2587   1.899       .  S
O2582      C2592   1.262   1_545  A
O2582      V2587   1.874       .  S
O2583      C2592   1.276       .  A
O2583      V2588   1.954   1_565  S
O2584      C2591   1.286       .  A
O2584      V2588   1.977       .  S
O2585      C2590   1.266       .  A
O2585      V2588   1.899       .  S
O2586      C2589   1.260       .  A
O2586      V3500   1.912       .  S
V2587      O3491   1.892   1_545  S
V2587      V2588   2.078       .  T
V2588      O3498   1.911   1_545  S
C2590      N2600   1.448       .  S
C2591      N2663   1.480       .  S
C2592      N3505   1.462       .  S
N2593      C3509   1.353       .  A
N2593      C2594   1.372       .  A
N2593      C3504   1.463       .  S
C2594      C2595   1.384       .  A
C2595      C2596   1.345       .  A
C2595      H2598   1.079       .  S
C2596      C3509   1.368       .  A
C2596      H2599   1.076       .  S
C2597      N3505   1.352       .  A
C2597      C3508   1.368       .  A
N2600      C2604   1.356       .  A
N2600      C2601   1.358       .  A
C2601      C2694   1.498       .  S
C2601      C2602   1.383       .  A
C2602      C2603   1.371       .  A
C2602      H2605   1.079       .  S
C2603      C2604   1.370       .  A
C2603      H2606   1.082       .  S
O2607      C2617   1.277       .  A
O2607      V2615   1.923       .  S
O2608      C2618   1.270       .  A
O2608      V3527   1.951       .  S
O2609      C2619   1.271       .  A
O2609      V2615   1.912       .  S
O2610      C2620   1.261       .  A
O2610      V3527   1.914       .  S
O2611      C2620   1.271       .  A
O2611      V3528   1.894       .  S
O2612      C2619   1.267       .  A
O2612      V2616   1.916       .  S
O2613      C2618   1.267       .  A
O2613      V3528   1.879       .  S
O2614      C2617   1.258       .  A
O2614      V2616   1.909       .  S
V2615      O3520   1.952       .  S
V2615      O3522   1.914       .  S
V2615      V2616   2.082       .  T
V2616      O3523   1.894       .  S
V2616      O3525   1.878       .  S
C2618      N2649   1.460       .  S
C2619      N2621   1.457       .  S
C2620      C2667   1.494       .  S
N2621      C2625   1.353       .  A
N2621      C2622   1.361       .  A
C2622      C2623   1.395       .  A
C2623      C2624   1.359       .  A
C2623      H2626   1.079       .  S
C2624      C2625   1.369       .  A
C2624      H2627   1.083       .  S
O2628      C2638   1.255       .  A
O2628      V2636   1.847       .  S
O2629      C2639   1.258       .  A
O2630      C2640   1.264       .  A
O2630      V2636   1.923       .  S
O2631      C2641   1.268       .  A
O2631      V2636   1.914       .  S
O2632      C2641   1.268       .  A
O2632      V2637   1.906       .  S
O2633      C2640   1.274       .  A
O2633      V2637   1.898       .  S
O2634      C2639   1.261       .  A
O2635      C2638   1.261       .  A
O2635      V2637   1.888       .  S
V2636      V2637   2.062       .  T
C2639      C2653   1.453       .  S
C2641      N2642   1.450       .  S
N2642      C2646   1.370       .  A
N2642      C2643   1.371       .  A
C2643      C2644   1.383       .  A
C2644      C2645   1.356       .  A
C2644      H2647   1.077       .  S
C2645      C2646   1.375       .  A
C2645      H2648   1.083       .  S
N2649      C2653   1.354       .  A
N2649      C2650   1.378       .  A
C2650      C2682   1.470       .  S
C2650      C2651   1.386       .  A
C2651      C2652   1.361       .  A
C2651      H2654   1.080       .  S
C2652      C2653   1.373       .  A
C2652      H2655   1.077       .  S
N2656      C2660   1.383       .  A
N2656      C2657   1.376       .  A
C2657      C2658   1.381       .  A
C2658      C2659   1.350       .  A
C2658      H2661   1.080       .  S
C2659      C2660   1.380       .  A
C2659      H2662   1.083       .  S
N2663      C2667   1.387       .  A
N2663      C2664   1.380       .  A
C2664      C2665   1.387       .  A
C2665      C2666   1.340       .  A
C2665      H2668   1.082       .  S
C2666      C2667   1.373       .  A
C2666      H2669   1.083   1_545  S
N2670      C2674   1.344       .  A
N2670      C2671   1.360       .  A
C2671      C2672   1.397       .  A
C2672      C2673   1.374       .  A
C2672      H2675   1.083       .  S
C2673      C2674   1.380       .  A
C2673      H2676   1.079       .  S
C2677      C2678   1.507       .  S
C2677      C2683   1.481       .  S
C2677      C2681   1.579       .  S
C2677      C2727   1.497       .  S
C2678      C2679   1.344       .  D
C2678      H2685   1.082       .  S
C2679      C2680   1.545       .  S
C2680      C2684   1.598       .  S
C2680      C2682   1.529       .  S
C2680      H2686   1.112       .  S
C2681      C2682   1.397       .  D
C2681      H2687   1.085       .  S
C2683      C2684   1.334       .  D
C2683      H2688   1.089       .  S
C2689      C2690   1.511       .  S
C2689      C2695   1.523       .  S
C2689      C2693   1.515       .  S
C2689      C2730   1.505       .  S
C2690      C2691   1.349       .  D
C2690      H2697   1.078       .  S
C2691      C2692   1.565       .  S
C2692      C2696   1.556       .  S
C2692      C2694   1.579       .  S
C2692      H2698   1.110       .  S
C2693      C2694   1.383       .  D
C2693      H2699   1.083       .  S
C2695      C2696   1.365       .  D
C2695      H2700   1.088       .  S
C2701      C2702   1.534       .  S
C2701      C2707   1.541       .  S
C2701      C2705   1.594       .  S
C2701      C2725   1.631       .  S
C2702      C2703   1.380       .  D
C2702      H2709   1.084       .  S
C2703      C2704   1.540       .  S
C2704      C2708   1.567       .  S
C2704      C2706   1.549       .  S
C2704      H2710   1.102       .  S
C2705      C2706   1.402       .  D
C2705      H2711   1.085       .  S
C2707      C2708   1.367       .  D
C2707      H2712   1.088       .  S
C2713      C2714   1.505       .  S
C2713      C2719   1.530       .  S
C2713      C2717   1.544       .  S
C2713      C2732   1.544       .  S
C2714      C2715   1.370       .  D
C2714      H2721   1.079       .  S
C2715      C2716   1.560       .  S
C2716      C2720   1.526       .  S
C2716      C2718   1.560       .  S
C2716      H2722   1.109       .  S
C2717      C2718   1.379       .  D
C2717      H2723   1.086       .  S
C2719      C2720   1.359       .  D
C2719      H2724   1.065       .  S
C2725      C2726   1.538       .  S
C2725      C2731   1.566       .  S
C2725      C2729   1.547       .  S
C2726      C2727   1.397       .  D
C2726      H2733   1.086       .  S
C2727      C2728   1.480       .  S
C2728      C2732   1.530       .  S
C2728      C2730   1.507       .  S
C2728      H2734   1.086       .  S
C2729      C2730   1.371       .  D
C2729      H2735   1.086       .  S
C2731      C2732   1.395       .  D
C2731      H2736   1.085       .  S
C2737      C2738   1.492       .  S
C2737      C2743   1.566       .  S
C2737      C2741   1.523       .  S
C2737      C2785   1.594       .  S
C2738      C2739   1.390       .  D
C2738      H3201   1.082   1_554  S
C2739      C2740   1.581       .  S
C2739      C3127   1.534       .  S
C2740      C2744   1.538       .  S
C2740      C2742   1.594       .  S
C2740      H2746   1.110       .  S
C2741      C2742   1.369       .  D
C2742      C3120   1.522       .  S
C2743      C2744   1.362       .  D
C2744      C3113   1.501       .  S
H2745      C3194   1.082       .  S
C2749      C2750   1.519       .  S
C2749      C2755   1.513       .  S
C2749      C2753   1.504       .  S
C2749      C2787   1.483       .  S
C2750      C2751   1.373       .  D
C2751      C2752   1.551       .  S
C2751      C2952   1.476       .  S
C2752      C2756   1.545       .  S
C2752      C2754   1.575       .  S
C2752      H2758   1.110       .  S
C2753      C2754   1.362       .  D
C2753      H2759   1.090       .  S
C2754      C3099   1.478       .  S
C2755      C2756   1.351       .  D
C2755      H3216   1.086       .  S
C2756      C3029   1.485       .  S
H2760      C3211   1.086   1_554  S
C2761      C2762   1.527       .  S
C2761      C2767   1.519       .  S
C2761      C2765   1.529       .  S
C2761      C2790   1.508       .  S
C2762      C2763   1.351       .  D
C2762      H2769   1.090   1_655  S
C2763      C2764   1.577       .  S
C2763      C3001   1.500       .  S
C2764      C2768   1.579       .  S
C2764      C2766   1.525       .  S
C2764      H2770   1.105       .  S
C2765      C2766   1.334       .  D
C2765      H2771   1.065   1_554  S
C2766      C2854   1.461       .  S
C2767      C2768   1.375       .  D
C2768      C3050   1.488       .  S
C2773      C2774   1.505       .  S
C2773      C2779   1.554       .  S
C2773      C2777   1.566       .  S
C2773      C2792   1.536       .  S
C2774      C2775   1.353       .  D
C2774      H3237   1.090       .  S
C2775      C2776   1.573       .  S
C2775      C2980   1.482       .  S
C2776      C2780   1.542       .  S
C2776      C2778   1.534       .  S
C2776      H2782   1.103       .  S
C2777      C2778   1.378       .  D
C2777      H2783   1.086       .  S
C2778      C3078   1.500       .  S
C2779      C2780   1.372       .  D
C2780      C2903   1.518       .  S
H2781      C3230   1.090   1_554  S
C2786      C3243   1.373   1_455  D
C2786      H3249   1.085   1_455  S
C2787      C3242   1.373   1_655  D
C2788      C3246   1.524       .  S
C2788      H2794   1.059       .  S
C2789      C2790   1.347   1_545  D
C2789      H2795   1.084       .  S
C2790      C3244   1.523   1_554  S
C2791      C3248   1.391       .  D
C2791      H2796   1.084       .  S
C2792      C3247   1.393       .  D
H2793      C3242   1.085   1_655  S
N2797      C2801   1.400       .  A
N2797      C2798   1.385       .  A
N2797      C2887   1.465       .  S
C2798      C3164   1.513       .  S
C2798      C2799   1.386       .  A
C2799      C2800   1.328       .  A
C2799      H2802   1.078       .  S
C2800      C2801   1.378       .  A
C2800      H2803   1.082       .  S
C2801      C2933   1.522       .  S
N2804      C2808   1.370       .  A
N2804      C2805   1.379       .  A
N2804      C2835   1.488       .  S
C2805      C3162   1.547       .  S
C2805      C2806   1.398       .  A
C2806      C2807   1.354       .  A
C2806      H2809   1.077       .  S
C2807      C2808   1.365       .  A
C2807      H2810   1.080       .  S
C2808      C2950   1.472       .  S
N2811      C2815   1.371       .  A
N2811      C2812   1.364       .  A
N2811      C2836   1.465       .  S
C2812      C3171   1.508       .  S
C2812      C2813   1.391       .  A
C2813      C2814   1.348       .  A
C2813      H2816   1.080       .  S
C2814      C2815   1.365       .  A
C2814      H2817   1.082       .  S
C2815      C3045   1.482       .  S
N2818      C2822   1.355       .  A
N2818      C2819   1.357       .  A
N2818      C2850   1.434       .  S
C2819      C3147   1.513       .  S
C2819      C2820   1.403       .  A
C2820      C2821   1.364       .  A
C2820      H2823   1.079       .  S
C2821      C2822   1.372       .  A
C2821      H2824   1.082       .  S
C2822      C2998   1.468       .  S
O2825      C2835   1.278       .  A
O2825      V3289   1.961       .  S
O2826      C2836   1.276       .  A
O2826      V2833   1.933       .  S
O2827      C2837   1.253       .  A
O2827      V3289   1.882       .  S
O2828      C2838   1.265       .  A
O2828      V2833   1.903       .  S
O2829      C2838   1.270       .  A
O2829      V2834   1.936       .  S
O2830      C2837   1.266       .  A
O2830      V3290   1.879       .  S
O2831      C2836   1.268       .  A
O2831      V2834   1.921       .  S
O2832      C2835   1.275       .  A
O2832      V3290   1.930       .  S
V2833      O3281   1.959   1_554  S
V2833      O3283   1.882   1_554  S
V2833      V2834   2.081       .  T
V2834      O3286   1.880   1_554  S
V2834      O3288   1.930   1_554  S
C2837      C2983   1.457       .  S
C2838      N2853   1.460       .  S
O2839      C2849   1.265       .  A
O2839      V3303   1.912       .  S
O2840      C2850   1.266       .  A
O2840      V2847   1.886       .  S
O2841      C2851   1.259       .  A
O2841      V2847   1.886       .  S
O2842      C2852   1.261       .  A
O2842      V2847   1.886       .  S
O2843      C2852   1.254       .  A
O2843      V2848   1.868       .  S
O2844      C2851   1.255       .  A
O2844      V2848   1.849       .  S
O2845      C2850   1.263       .  A
O2845      V2848   1.892       .  S
O2846      C2849   1.261       .  A
O2846      V3304   1.910       .  S
V2847      O3295   1.908   1_554  S
V2847      V2848   2.086       .  T
V2848      O3302   1.909   1_554  S
C2849      C2861   1.483       .  S
C2851      C2857   1.448       .  S
C2852      C3032   1.446       .  S
N2853      C2857   1.359       .  A
N2853      C2854   1.361       .  A
C2854      C2855   1.381       .  A
C2855      C2856   1.344   1_554  A
C2855      H2858   1.077       .  S
C2856      C2857   1.379   1_556  A
C2856      H2859   1.083       .  S
N2860      C2864   1.380       .  A
N2860      C2861   1.375       .  A
N2860      C2899   1.468       .  S
C2861      C2862   1.371       .  A
C2862      C2863   1.360       .  A
C2862      H2865   1.083       .  S
C2863      C2864   1.390       .  A
C2863      H2866   1.082       .  S
C2864      C3159   1.514       .  S
N2867      C2871   1.381       .  A
N2867      C2868   1.376       .  A
N2867      C2886   1.478       .  S
C2868      C3174   1.500       .  S
C2868      C2869   1.387       .  A
C2869      C2870   1.354       .  A
C2869      H2872   1.081       .  S
C2870      C2871   1.372       .  A
C2870      H2873   1.082       .  S
C2871      C3073   1.495       .  S
O2874      C2884   1.281       .  A
O2874      V2882   1.959       .  S
O2875      C2885   1.284       .  A
O2876      C2886   1.258       .  A
O2877      C2887   1.252       .  A
O2877      V2882   1.882       .  S
O2878      C2887   1.288       .  A
O2878      V2883   1.978       .  S
O2879      C2886   1.290       .  A
O2880      C2885   1.251       .  A
O2881      C2884   1.264       .  A
O2881      V2883   1.912       .  S
V2882      V2883   2.077       .  T
C2884      N3000   1.473       .  S
C2885      C2906   1.494       .  S
O2888      C2898   1.278       .  A
O2888      V2896   1.960       .  S
O2889      C2899   1.273       .  A
O2890      C2900   1.279       .  A
O2890      V2896   1.963       .  S
O2891      C2901   1.264       .  A
O2892      C2901   1.261       .  A
O2893      C2900   1.270       .  A
O2893      V2897   1.916       .  S
O2894      C2899   1.272       .  A
O2895      C2898   1.275       .  A
O2895      V2897   1.941       .  S
V2896      V2897   2.076       .  T
C2898      N2909   1.489       .  S
C2900      N2902   1.477       .  S
C2901      C3102   1.483       .  S
N2902      C2906   1.398       .  A
N2902      C2903   1.382       .  A
C2903      C2904   1.387       .  A
C2904      C2905   1.335       .  A
C2904      H2907   1.082       .  S
C2905      C2906   1.374       .  A
C2905      H2908   1.082       .  S
N2909      C2913   1.365       .  A
N2909      C2910   1.404       .  A
C2910      C3140   1.474       .  S
C2910      C2911   1.376       .  A
C2911      C2912   1.341       .  A
C2911      H2914   1.085       .  S
C2912      C2913   1.372       .  A
C2912      H2915   1.077       .  S
C2913      C2978   1.466       .  S
N2916      C2920   1.351       .  A
N2916      C2917   1.364       .  A
N2916      C2934   1.444       .  S
C2917      C3152   1.479       .  S
C2917      C2918   1.394       .  A
C2918      C2919   1.351       .  A
C2918      H2921   1.067       .  S
C2919      C2920   1.366       .  A
C2919      H2922   1.083       .  S
C2920      C3094   1.446       .  S
O2923      C2933   1.270       .  A
O2924      C2934   1.258       .  A
O2924      V2931   1.900       .  S
O2926      C2936   1.258       .  A
O2926      V2931   1.887       .  S
O2927      C2936   1.262       .  A
O2927      V2932   1.875       .  S
O2928      C2935   1.258       .  A
O2928      V2932   1.876       .  S
O2929      C2934   1.276       .  A
O2929      V2932   1.926       .  S
O2930      C2933   1.273       .  A
V2931      V2932   2.077       .  T
C2935      C3053   1.440       .  S
C2936      C2955   1.470       .  S
O2937      V2945   1.910       .  S
O2938      C2948   1.277       .  A
O2938      V2945   1.940       .  S
O2939      C2949   1.260       .  A
O2939      V2945   1.876       .  S
O2940      C2950   1.255       .  A
O2941      C2950   1.272       .  A
O2942      C2949   1.271       .  A
O2942      V2946   1.919       .  S
O2943      C2948   1.249       .  A
O2943      V2946   1.859       .  S
O2944      C2947   1.251       .  A
V2945      V2946   2.079       .  T
C2947      C3081   1.450       .  S
C2948      N2951   1.450       .  S
C2949      N2958   1.445       .  S
N2951      C2955   1.371       .  A
N2951      C2952   1.355       .  A
C2952      C2953   1.386       .  A
C2953      C2954   1.350       .  A
C2953      H2956   1.078       .  S
C2954      C2955   1.376       .  A
C2954      H2957   1.082       .  S
N2958      C2962   1.346       .  A
N2958      C2959   1.345       .  A
C2959      C3135   1.504       .  S
C2959      C2960   1.401       .  A
C2960      C2961   1.365       .  A
C2960      H2963   1.082       .  S
C2961      C2962   1.373       .  A
C2961      H2964   1.082       .  S
C2962      C3024   1.435       .  S
O2965      C2975   1.275       .  A
O2965      V2973   1.936       .  S
O2966      C2976   1.269       .  A
O2966      V2973   1.920       .  S
O2967      C2977   1.273       .  A
O2967      V2973   1.931       .  S
O2968      C2978   1.266       .  A
O2968      V3429   1.925       .  S
O2969      C2978   1.258       .  A
O2969      V3430   1.862       .  S
O2970      C2977   1.260       .  A
O2970      V2974   1.861       .  S
O2971      C2976   1.270       .  A
O2971      V2974   1.911       .  S
O2972      C2975   1.257       .  A
O2972      V2974   1.883       .  S
V2973      O3424   1.925   1_554  S
V2973      V2974   2.075       .  T
V2974      O3425   1.865   1_554  S
C2975      N3435   1.453   1_554  S
C2976      N3126   1.461       .  S
C2977      N3007   1.445       .  S
N2979      C2983   1.372       .  A
N2979      C2980   1.360       .  A
N2979      C3431   1.453       .  S
C2980      C2981   1.392       .  A
C2981      C2982   1.341       .  A
C2981      H2984   1.074       .  S
C2982      C2983   1.367       .  A
C2982      H2985   1.082       .  S
O2986      C2996   1.270       .  A
O2986      V2994   1.893       .  S
O2987      C2997   1.271       .  A
O2988      C2998   1.258       .  A
O2988      V2994   1.890   1_655  S
O2989      C2999   1.254       .  A
O2990      C2999   1.266       .  A
O2991      C2998   1.267       .  A
O2991      V2995   1.896       .  S
O2992      C2997   1.269       .  A
O2993      C2996   1.259   1_655  A
O2993      V2995   1.904       .  S
V2994      V2995   2.086   1_455  T
C2996      C3004   1.475       .  S
C2997      N3112   1.462       .  S
C2999      C3011   1.448       .  S
N3000      C3004   1.375   1_655  A
N3000      C3001   1.370       .  A
C3001      C3002   1.385   1_655  A
C3002      C3003   1.344       .  A
C3002      H3005   1.081       .  S
C3003      C3004   1.375       .  A
C3003      H3006   1.082       .  S
N3007      C3011   1.366       .  A
N3007      C3008   1.362       .  A
C3008      C3176   1.481       .  S
C3008      C3009   1.381       .  A
C3009      C3010   1.359       .  A
C3009      H3012   1.077       .  S
C3010      C3011   1.358       .  A
C3010      H3013   1.079       .  S
O3014      C3024   1.260       .  A
O3014      V3022   1.878       .  S
O3015      C3025   1.263       .  A
O3015      V3478   1.899   1_554  S
O3016      C3026   1.253       .  A
O3016      V3022   1.855       .  S
O3017      C3027   1.253       .  A
O3017      V3478   1.860       .  S
O3018      C3027   1.263       .  A
O3018      V3479   1.901       .  S
O3019      C3026   1.267       .  A
O3019      V3023   1.894       .  S
O3020      C3025   1.262       .  A
O3020      V3479   1.892   1_554  S
O3021      C3024   1.256       .  A
O3021      V3023   1.866       .  S
V3022      O3471   1.897       .  S
V3022      O3473   1.863       .  S
V3022      V3023   2.083       .  T
V3023      O3474   1.899       .  S
V3023      O3476   1.891       .  S
C3025      C3060   1.463       .  S
C3026      N3028   1.413       .  S
C3027      C3130   1.445       .  S
N3028      C3488   1.337       .  A
N3028      C3029   1.335       .  A
C3029      C3030   1.395       .  A
C3030      C3031   1.374       .  A
C3030      H3033   1.073       .  S
C3031      C3488   1.372       .  A
C3031      H3490   1.082       .  S
C3032      N3484   1.338   1_554  A
C3032      C3487   1.372       .  A
H3034      C3487   1.082       .  S
O3035      C3045   1.270       .  A
O3036      C3046   1.266       .  A
O3036      V3043   1.896       .  S
O3037      C3047   1.261       .  A
O3037      V3043   1.899       .  S
O3038      C3048   1.262       .  A
O3038      V3043   1.874       .  S
O3039      C3048   1.275       .  A
O3039      V3044   1.952       .  S
O3040      C3047   1.285       .  A
O3040      V3044   1.976       .  S
O3041      C3046   1.266       .  A
O3041      V3044   1.900       .  S
O3042      C3045   1.260       .  A
V3043      V3044   2.078       .  T
C3046      N3056   1.448       .  S
C3047      N3119   1.479       .  S
N3049      C3050   1.372       .  A
C3050      C3051   1.383       .  A
C3051      C3052   1.346       .  A
C3051      H3054   1.079       .  S
C3052      H3055   1.075       .  S
N3056      C3060   1.357       .  A
N3056      C3057   1.359       .  A
C3057      C3150   1.500       .  S
C3057      C3058   1.383       .  A
C3058      C3059   1.371       .  A
C3058      H3061   1.079       .  S
C3059      C3060   1.371       .  A
C3059      H3062   1.082       .  S
O3063      C3073   1.278       .  A
O3063      V3071   1.926   1_565  S
O3064      C3074   1.271       .  A
O3065      C3075   1.271       .  A
O3065      V3071   1.912   1_565  S
O3066      C3076   1.260       .  A
O3067      C3076   1.271       .  A
O3068      C3075   1.268       .  A
O3068      V3072   1.919       .  S
O3069      C3074   1.267       .  A
O3070      C3073   1.259       .  A
O3070      V3072   1.911       .  S
V3071      V3072   2.082   1_545  T
C3074      N3105   1.462       .  S
C3075      N3077   1.458       .  S
C3076      C3123   1.491       .  S
N3077      C3081   1.355       .  A
N3077      C3078   1.362       .  A
C3078      C3079   1.394       .  A
C3079      C3080   1.359       .  A
C3079      H3082   1.079       .  S
C3080      C3081   1.369       .  A
C3080      H3083   1.083       .  S
O3084      C3094   1.255       .  A
O3084      V3092   1.847       .  S
O3085      C3095   1.258       .  A
O3086      C3096   1.264       .  A
O3086      V3092   1.922       .  S
O3087      C3097   1.267       .  A
O3087      V3092   1.912       .  S
O3088      C3097   1.268       .  A
O3088      V3093   1.907       .  S
O3089      C3096   1.275       .  A
O3089      V3093   1.900       .  S
O3090      C3095   1.261       .  A
O3091      C3094   1.261       .  A
O3091      V3093   1.888       .  S
V3092      V3093   2.060       .  T
C3095      C3109   1.453       .  S
C3097      N3098   1.449       .  S
N3098      C3102   1.370       .  A
N3098      C3099   1.371       .  A
C3099      C3100   1.382       .  A
C3100      C3101   1.356       .  A
C3100      H3103   1.077       .  S
C3101      C3102   1.375       .  A
C3101      H3104   1.083       .  S
N3105      C3109   1.355       .  A
N3105      C3106   1.380       .  A
C3106      C3138   1.472       .  S
C3106      C3107   1.386       .  A
C3107      C3108   1.360       .  A
C3107      H3110   1.080       .  S
C3108      C3109   1.372       .  A
C3108      H3111   1.078       .  S
N3112      C3116   1.383       .  A
N3112      C3113   1.376       .  A
C3113      C3114   1.380       .  A
C3114      C3115   1.350       .  A
C3114      H3117   1.080       .  S
C3115      C3116   1.380       .  A
C3115      H3118   1.083       .  S
N3119      C3123   1.386       .  A
N3119      C3120   1.379       .  A
C3120      C3121   1.388       .  A
C3121      C3122   1.340       .  A
C3121      H3124   1.082       .  S
C3122      C3123   1.372       .  A
C3122      H3125   1.083       .  S
N3126      C3130   1.344   1_554  A
N3126      C3127   1.359       .  A
C3127      C3128   1.397   1_554  A
C3128      C3129   1.375       .  A
C3128      H3131   1.084       .  S
C3129      C3130   1.380       .  A
C3129      H3132   1.079       .  S
C3133      C3134   1.505       .  S
C3133      C3139   1.482       .  S
C3133      C3137   1.580       .  S
C3133      C3183   1.498       .  S
C3134      C3135   1.343       .  D
C3134      H3141   1.081       .  S
C3135      C3136   1.546       .  S
C3136      C3140   1.599       .  S
C3136      C3138   1.529       .  S
C3136      H3142   1.112       .  S
C3137      C3138   1.397       .  D
C3137      H3143   1.085       .  S
C3139      C3140   1.335       .  D
C3139      H3144   1.088       .  S
C3145      C3146   1.512       .  S
C3145      C3151   1.523       .  S
C3145      C3149   1.516       .  S
C3145      C3186   1.507       .  S
C3146      C3147   1.349       .  D
C3146      H3153   1.079       .  S
C3147      C3148   1.565       .  S
C3148      C3152   1.557       .  S
C3148      C3150   1.580       .  S
C3148      H3154   1.110       .  S
C3149      C3150   1.384       .  D
C3149      H3155   1.083       .  S
C3151      C3152   1.365       .  D
C3151      H3156   1.088       .  S
C3157      C3158   1.534       .  S
C3157      C3163   1.541       .  S
C3157      C3161   1.594       .  S
C3157      C3181   1.632       .  S
C3158      C3159   1.380       .  D
C3158      H3165   1.084       .  S
C3159      C3160   1.539       .  S
C3160      C3164   1.566       .  S
C3160      C3162   1.550       .  S
C3160      H3166   1.102       .  S
C3161      C3162   1.402       .  D
C3161      H3167   1.085       .  S
C3163      C3164   1.368       .  D
C3163      H3168   1.087       .  S
C3169      C3170   1.503       .  S
C3169      C3175   1.530       .  S
C3169      C3173   1.545       .  S
C3169      C3188   1.543       .  S
C3170      C3171   1.368       .  D
C3170      H3177   1.079       .  S
C3171      C3172   1.561       .  S
C3172      C3176   1.526       .  S
C3172      C3174   1.561       .  S
C3172      H3178   1.109       .  S
C3173      C3174   1.379       .  D
C3173      H3179   1.085       .  S
C3175      C3176   1.359       .  D
C3175      H3180   1.065       .  S
C3181      C3182   1.539       .  S
C3181      C3187   1.565       .  S
C3181      C3185   1.547       .  S
C3182      C3183   1.397       .  D
C3182      H3189   1.086       .  S
C3183      C3184   1.480       .  S
C3184      C3188   1.530       .  S
C3184      C3186   1.508       .  S
C3184      H3190   1.087       .  S
C3185      C3186   1.372       .  D
C3185      H3191   1.086       .  S
C3187      C3188   1.395       .  D
C3187      H3192   1.085       .  S
C3193      C3194   1.495       .  S
C3193      C3199   1.565       .  S
C3193      C3197   1.524       .  S
C3193      C3241   1.595       .  S
C3194      C3195   1.391       .  D
C3195      C3196   1.581       .  S
C3195      C3583   1.537       .  S
C3196      C3200   1.539       .  S
C3196      C3198   1.594       .  S
C3196      H3202   1.110       .  S
C3197      C3198   1.370       .  D
C3198      C3576   1.522       .  S
C3199      C3200   1.361       .  D
C3200      C3569   1.500       .  S
C3205      C3206   1.517       .  S
C3205      C3211   1.514       .  S
C3205      C3209   1.504       .  S
C3205      C3243   1.481       .  S
C3206      C3207   1.372       .  D
C3207      C3208   1.552       .  S
C3207      C3408   1.473       .  S
C3208      C3212   1.543       .  S
C3208      C3210   1.576       .  S
C3208      H3214   1.110       .  S
C3209      C3210   1.361       .  D
C3209      H3215   1.090       .  S
C3210      C3555   1.478       .  S
C3211      C3212   1.351       .  D
C3212      C3485   1.484       .  S
C3217      C3218   1.526       .  S
C3217      C3223   1.521       .  S
C3217      C3221   1.531       .  S
C3217      C3246   1.508       .  S
C3218      C3219   1.351       .  D
C3218      H3225   1.090   1_655  S
C3219      C3220   1.575       .  S
C3219      C3457   1.499       .  S
C3220      C3224   1.578       .  S
C3220      C3222   1.527       .  S
C3220      H3226   1.105       .  S
C3221      C3222   1.335       .  D
C3221      H3227   1.068       .  S
C3222      C3310   1.461       .  S
C3223      C3224   1.376       .  D
C3224      C3506   1.487       .  S
C3229      C3230   1.505       .  S
C3229      C3235   1.556       .  S
C3229      C3233   1.566       .  S
C3229      C3248   1.537       .  S
C3230      C3231   1.355       .  D
C3231      C3232   1.572       .  S
C3231      C3436   1.481       .  S
C3232      C3236   1.541       .  S
C3232      C3234   1.534       .  S
C3232      H3238   1.103       .  S
C3233      C3234   1.377       .  D
C3233      H3239   1.086       .  S
C3234      C3534   1.499       .  S
C3235      C3236   1.371       .  D
C3236      C3359   1.519       .  S
C3244      H3250   1.060       .  S
C3245      C3246   1.348   1_545  D
C3245      H3251   1.084       .  S
C3247      H3252   1.085       .  S
N3253      C3257   1.400       .  A
N3253      C3254   1.384       .  A
N3253      C3343   1.465       .  S
C3254      C3620   1.513       .  S
C3254      C3255   1.387       .  A
C3255      C3256   1.328       .  A
C3255      H3258   1.078       .  S
C3256      C3257   1.378       .  A
C3256      H3259   1.083       .  S
C3257      C3389   1.522       .  S
N3260      C3264   1.369       .  A
N3260      C3261   1.379       .  A
N3260      C3291   1.487       .  S
C3261      C3618   1.545       .  S
C3261      C3262   1.398       .  A
C3262      C3263   1.354       .  A
C3262      H3265   1.077       .  S
C3263      C3264   1.365       .  A
C3263      H3266   1.080       .  S
C3264      C3406   1.472       .  S
N3267      C3271   1.370       .  A
N3267      C3268   1.365       .  A
N3267      C3292   1.465       .  S
C3268      C3627   1.508       .  S
C3268      C3269   1.391       .  A
C3269      C3270   1.348       .  A
C3269      H3272   1.080       .  S
C3270      C3271   1.365       .  A
C3270      H3273   1.081       .  S
C3271      C3501   1.481       .  S
N3274      C3278   1.356       .  A
N3274      C3275   1.356       .  A
N3274      C3306   1.434       .  S
C3275      C3603   1.513       .  S
C3275      C3276   1.403       .  A
C3276      C3277   1.364       .  A
C3276      H3279   1.079       .  S
C3277      C3278   1.373       .  A
C3277      H3280   1.082       .  S
C3278      C3454   1.469       .  S
O3281      C3291   1.277       .  A
O3282      C3292   1.276       .  A
O3282      V3289   1.934       .  S
O3283      C3293   1.253       .  A
O3284      C3294   1.265       .  A
O3284      V3289   1.902       .  S
O3285      C3294   1.269       .  A
O3285      V3290   1.930       .  S
O3286      C3293   1.266       .  A
O3287      C3292   1.268       .  A
O3287      V3290   1.922       .  S
O3288      C3291   1.275       .  A
V3289      V3290   2.081       .  T
C3293      C3439   1.458       .  S
C3294      N3309   1.458       .  S
O3295      C3305   1.264       .  A
O3296      C3306   1.267       .  A
O3296      V3303   1.888       .  S
O3297      C3307   1.259       .  A
O3297      V3303   1.887       .  S
O3298      C3308   1.260       .  A
O3298      V3303   1.885       .  S
O3299      C3308   1.254       .  A
O3299      V3304   1.867       .  S
O3300      C3307   1.255       .  A
O3300      V3304   1.849       .  S
O3301      C3306   1.262       .  A
O3301      V3304   1.890       .  S
O3302      C3305   1.261       .  A
V3303      V3304   2.086       .  T
C3305      C3317   1.481       .  S
C3307      C3313   1.448       .  S
C3308      C3488   1.445       .  S
N3309      C3313   1.359       .  A
N3309      C3310   1.360       .  A
C3310      C3311   1.380       .  A
C3311      C3312   1.345       .  A
C3311      H3314   1.077       .  S
C3312      C3313   1.379       .  A
C3312      H3315   1.083       .  S
N3316      C3320   1.379       .  A
N3316      C3317   1.375       .  A
N3316      C3355   1.468       .  S
C3317      C3318   1.371       .  A
C3318      C3319   1.360       .  A
C3318      H3321   1.083       .  S
C3319      C3320   1.391       .  A
C3319      H3322   1.082       .  S
C3320      C3615   1.513       .  S
N3323      C3327   1.381       .  A
N3323      C3324   1.375       .  A
N3323      C3342   1.477       .  S
C3324      C3630   1.498       .  S
C3324      C3325   1.387       .  A
C3325      C3326   1.354       .  A
C3325      H3328   1.080       .  S
C3326      C3327   1.371       .  A
C3326      H3329   1.081       .  S
C3327      C3529   1.492       .  S
O3330      C3340   1.281       .  A
O3330      V3338   1.962       .  S
O3331      C3341   1.284       .  A
O3332      C3342   1.257       .  A
O3333      C3343   1.252       .  A
O3333      V3338   1.882       .  S
O3334      C3343   1.288       .  A
O3334      V3339   1.976       .  S
O3335      C3342   1.290       .  A
O3336      C3341   1.251       .  A
O3337      C3340   1.265       .  A
O3337      V3339   1.913       .  S
V3338      V3339   2.077       .  T
C3340      N3456   1.475       .  S
C3341      C3362   1.494       .  S
O3344      C3354   1.278       .  A
O3344      V3352   1.961       .  S
O3345      C3355   1.272       .  A
O3346      C3356   1.279       .  A
O3346      V3352   1.965       .  S
O3347      C3357   1.264       .  A
O3348      C3357   1.262       .  A
O3349      C3356   1.270       .  A
O3349      V3353   1.915       .  S
O3350      C3355   1.273       .  A
O3351      C3354   1.275       .  A
O3351      V3353   1.938       .  S
V3352      V3353   2.075       .  T
C3354      N3365   1.489       .  S
C3356      N3358   1.477       .  S
C3357      C3558   1.482       .  S
N3358      C3362   1.398       .  A
N3358      C3359   1.382       .  A
C3359      C3360   1.388       .  A
C3360      C3361   1.336       .  A
C3360      H3363   1.081       .  S
C3361      C3362   1.374       .  A
C3361      H3364   1.082       .  S
N3365      C3369   1.366       .  A
N3365      C3366   1.404       .  A
C3366      C3596   1.473       .  S
C3366      C3367   1.376       .  A
C3367      C3368   1.341       .  A
C3367      H3370   1.085       .  S
C3368      C3369   1.372       .  A
C3368      H3371   1.077       .  S
C3369      C3434   1.466       .  S
N3372      C3376   1.351       .  A
N3372      C3373   1.364       .  A
N3372      C3390   1.444       .  S
C3373      C3608   1.479       .  S
C3373      C3374   1.392       .  A
C3374      C3375   1.350       .  A
C3374      H3377   1.066       .  S
C3375      C3376   1.365       .  A
C3375      H3378   1.083       .  S
C3376      C3550   1.446       .  S
O3379      C3389   1.270       .  A
O3380      C3390   1.258       .  A
O3380      V3387   1.899       .  S
O3382      C3392   1.257       .  A
O3382      V3387   1.886       .  S
O3383      C3392   1.262       .  A
O3383      V3388   1.876       .  S
O3384      C3391   1.257       .  A
O3384      V3388   1.875       .  S
O3385      C3390   1.276       .  A
O3385      V3388   1.924       .  S
O3386      C3389   1.273       .  A
V3387      V3388   2.075       .  T
C3391      C3509   1.438       .  S
C3392      C3411   1.468       .  S
O3393      V3401   1.906       .  S
O3394      C3404   1.276       .  A
O3394      V3401   1.937       .  S
O3395      C3405   1.260       .  A
O3395      V3401   1.878       .  S
O3396      C3406   1.255       .  A
O3397      C3406   1.272       .  A
O3398      C3405   1.271       .  A
O3398      V3402   1.920       .  S
O3399      C3404   1.249       .  A
O3399      V3402   1.855       .  S
O3400      C3403   1.250       .  A
V3401      V3402   2.081       .  T
C3403      C3537   1.445       .  S
C3404      N3407   1.448       .  S
C3405      N3414   1.446       .  S
N3407      C3411   1.370       .  A
N3407      C3408   1.352       .  A
C3408      C3409   1.387       .  A
C3409      C3410   1.351       .  A
C3409      H3412   1.079       .  S
C3410      C3411   1.376       .  A
C3410      H3413   1.082       .  S
N3414      C3418   1.346       .  A
N3414      C3415   1.346       .  A
C3415      C3591   1.505       .  S
C3415      C3416   1.401       .  A
C3416      C3417   1.365       .  A
C3416      H3419   1.082       .  S
C3417      C3418   1.373       .  A
C3417      H3420   1.082       .  S
C3418      C3480   1.436       .  S
O3421      C3431   1.275       .  A
O3421      V3429   1.936       .  S
O3422      C3432   1.269       .  A
O3422      V3429   1.920       .  S
O3423      C3433   1.273       .  A
O3423      V3429   1.932       .  S
O3424      C3434   1.265       .  A
O3425      C3434   1.259       .  A
O3426      C3433   1.259       .  A
O3426      V3430   1.859       .  S
O3427      C3432   1.271       .  A
O3427      V3430   1.914       .  S
O3428      C3431   1.257       .  A
O3428      V3430   1.883       .  S
V3429      V3430   2.077       .  T
C3432      N3582   1.462       .  S
C3433      N3463   1.446       .  S
N3435      C3439   1.373       .  A
N3435      C3436   1.360       .  A
C3436      C3437   1.391       .  A
C3437      C3438   1.341       .  A
C3437      H3440   1.075       .  S
C3438      C3439   1.367       .  A
C3438      H3441   1.082       .  S
O3442      C3452   1.269       .  A
O3442      V3450   1.890       .  S
O3443      C3453   1.271       .  A
O3444      C3454   1.258       .  A
O3444      V3450   1.890   1_655  S
O3445      C3455   1.254       .  A
O3446      C3455   1.265       .  A
O3447      C3454   1.267       .  A
O3447      V3451   1.897       .  S
O3448      C3453   1.269       .  A
O3449      C3452   1.259   1_655  A
O3449      V3451   1.905       .  S
V3450      V3451   2.085   1_455  T
C3452      C3460   1.475       .  S
C3453      N3568   1.463       .  S
C3455      C3467   1.446       .  S
N3456      C3460   1.375   1_655  A
N3456      C3457   1.373       .  A
C3457      C3458   1.384   1_655  A
C3458      C3459   1.343       .  A
C3458      H3461   1.081       .  S
C3459      C3460   1.375       .  A
C3459      H3462   1.082       .  S
N3463      C3467   1.365       .  A
N3463      C3464   1.362       .  A
C3464      C3632   1.481       .  S
C3464      C3465   1.380       .  A
C3465      C3466   1.359       .  A
C3465      H3468   1.077       .  S
C3466      C3467   1.356       .  A
C3466      H3469   1.079       .  S
O3470      C3480   1.261       .  A
O3470      V3478   1.880       .  S
O3471      C3481   1.263       .  A
O3472      C3482   1.252       .  A
O3472      V3478   1.852       .  S
O3473      C3483   1.254       .  A
O3474      C3483   1.262       .  A
O3475      C3482   1.268       .  A
O3475      V3479   1.895       .  S
O3476      C3481   1.262       .  A
O3477      C3480   1.255       .  A
O3477      V3479   1.866       .  S
V3478      V3479   2.083       .  T
C3481      C3516   1.460       .  S
C3482      N3484   1.412       .  S
C3483      C3586   1.446       .  S
N3484      C3485   1.334       .  A
C3485      C3486   1.394   1_556  A
C3486      C3487   1.374       .  A
C3486      H3489   1.073       .  S
O3491      C3501   1.270       .  A
O3492      C3502   1.266       .  A
O3492      V3499   1.895       .  S
O3493      C3503   1.260       .  A
O3493      V3499   1.898       .  S
O3494      C3504   1.262       .  A
O3494      V3499   1.874       .  S
O3495      C3504   1.276       .  A
O3495      V3500   1.954       .  S
O3496      C3503   1.286       .  A
O3496      V3500   1.977       .  S
O3497      C3502   1.266       .  A
O3497      V3500   1.900       .  S
O3498      C3501   1.260       .  A
V3499      V3500   2.078       .  T
C3502      N3512   1.448       .  S
C3503      N3575   1.479       .  S
N3505      C3506   1.372       .  A
C3506      C3507   1.384       .  A
C3507      C3508   1.344       .  A
C3507      H3510   1.079       .  S
C3508      H3511   1.076       .  S
N3512      C3516   1.356       .  A
N3512      C3513   1.358       .  A
C3513      C3606   1.498       .  S
C3513      C3514   1.382       .  A
C3514      C3515   1.371       .  A
C3514      H3517   1.078       .  S
C3515      C3516   1.370       .  A
C3515      H3518   1.082       .  S
O3519      C3529   1.277       .  A
O3519      V3527   1.923   1_565  S
O3520      C3530   1.270       .  A
O3521      C3531   1.271       .  A
O3521      V3527   1.912   1_565  S
O3522      C3532   1.261       .  A
O3523      C3532   1.271       .  A
O3524      C3531   1.267       .  A
O3524      V3528   1.917   1_565  S
O3525      C3530   1.267       .  A
O3526      C3529   1.258       .  A
O3526      V3528   1.908   1_565  S
V3527      V3528   2.082       .  T
C3530      N3561   1.460       .  S
C3531      N3533   1.457       .  S
C3532      C3579   1.494       .  S
N3533      C3537   1.353       .  A
N3533      C3534   1.361       .  A
C3534      C3535   1.394       .  A
C3535      C3536   1.359       .  A
C3535      H3538   1.079       .  S
C3536      C3537   1.369       .  A
C3536      H3539   1.083       .  S
O3540      C3550   1.255       .  A
O3540      V3548   1.848       .  S
O3541      C3551   1.258       .  A
O3542      C3552   1.264       .  A
O3542      V3548   1.923       .  S
O3543      C3553   1.268       .  A
O3543      V3548   1.913       .  S
O3544      C3553   1.268       .  A
O3544      V3549   1.905       .  S
O3545      C3552   1.274       .  A
O3545      V3549   1.898       .  S
O3546      C3551   1.261       .  A
O3547      C3550   1.261       .  A
O3547      V3549   1.888       .  S
V3548      V3549   2.061       .  T
C3551      C3565   1.453       .  S
C3553      N3554   1.450       .  S
N3554      C3558   1.370       .  A
N3554      C3555   1.371       .  A
C3555      C3556   1.383       .  A
C3556      C3557   1.357       .  A
C3556      H3559   1.077       .  S
C3557      C3558   1.375       .  A
C3557      H3560   1.083       .  S
N3561      C3565   1.354       .  A
N3561      C3562   1.378       .  A
C3562      C3594   1.470       .  S
C3562      C3563   1.386       .  A
C3563      C3564   1.361       .  A
C3563      H3566   1.080       .  S
C3564      C3565   1.373       .  A
C3564      H3567   1.077       .  S
N3568      C3572   1.383       .  A
N3568      C3569   1.376       .  A
C3569      C3570   1.381       .  A
C3570      C3571   1.350       .  A
C3570      H3573   1.080       .  S
C3571      C3572   1.379       .  A
C3571      H3574   1.083       .  S
N3575      C3579   1.387       .  A
N3575      C3576   1.380       .  A
C3576      C3577   1.387       .  A
C3577      C3578   1.340       .  A
C3577      H3580   1.082       .  S
C3578      C3579   1.373       .  A
C3578      H3581   1.083       .  S
N3582      C3586   1.344       .  A
N3582      C3583   1.361       .  A
C3583      C3584   1.396       .  A
C3584      C3585   1.374       .  A
C3584      H3587   1.083       .  S
C3585      C3586   1.380       .  A
C3585      H3588   1.079       .  S
C3589      C3590   1.507       .  S
C3589      C3595   1.481       .  S
C3589      C3593   1.579       .  S
C3589      C3639   1.497       .  S
C3590      C3591   1.344       .  D
C3590      H3597   1.082       .  S
C3591      C3592   1.545       .  S
C3592      C3596   1.598       .  S
C3592      C3594   1.529       .  S
C3592      H3598   1.112       .  S
C3593      C3594   1.397       .  D
C3593      H3599   1.084       .  S
C3595      C3596   1.335       .  D
C3595      H3600   1.089       .  S
C3601      C3602   1.511       .  S
C3601      C3607   1.523       .  S
C3601      C3605   1.515       .  S
C3601      C3642   1.505       .  S
C3602      C3603   1.349       .  D
C3602      H3609   1.078       .  S
C3603      C3604   1.565       .  S
C3604      C3608   1.556       .  S
C3604      C3606   1.578       .  S
C3604      H3610   1.110       .  S
C3605      C3606   1.383       .  D
C3605      H3611   1.083       .  S
C3607      C3608   1.366       .  D
C3607      H3612   1.088       .  S
C3613      C3614   1.533       .  S
C3613      C3619   1.541       .  S
C3613      C3617   1.594       .  S
C3613      C3637   1.631       .  S
C3614      C3615   1.380       .  D
C3614      H3621   1.084       .  S
C3615      C3616   1.540       .  S
C3616      C3620   1.567       .  S
C3616      C3618   1.549       .  S
C3616      H3622   1.102       .  S
C3617      C3618   1.403       .  D
C3617      H3623   1.085       .  S
C3619      C3620   1.367       .  D
C3619      H3624   1.087       .  S
C3625      C3626   1.505       .  S
C3625      C3631   1.531       .  S
C3625      C3629   1.543       .  S
C3625      C3644   1.544       .  S
C3626      C3627   1.370       .  D
C3626      H3633   1.079       .  S
C3627      C3628   1.560       .  S
C3628      C3632   1.525       .  S
C3628      C3630   1.560       .  S
C3628      H3634   1.110       .  S
C3629      C3630   1.378       .  D
C3629      H3635   1.086       .  S
C3631      C3632   1.359       .  D
C3631      H3636   1.065       .  S
C3637      C3638   1.538       .  S
C3637      C3643   1.565       .  S
C3637      C3641   1.547       .  S
C3638      C3639   1.397       .  D
C3638      H3645   1.086       .  S
C3639      C3640   1.480       .  S
C3640      C3644   1.530       .  S
C3640      C3642   1.507       .  S
C3640      H3646   1.086       .  S
C3641      C3642   1.371       .  D
C3641      H3647   1.086       .  S
C3643      C3644   1.395       .  D
C3643      H3648   1.085       .  S
