geometry optimzed in LAMMPS
_audit_creation_date              2020-11-30 
_audit_creation_method            'lammps2cif' 
_symmetry_space_group_name_H-M    'P1' 
_symmetry_Int_Tables_number       1 
_symmetry_cell_setting            triclinic 
loop_ 
_symmetry_equiv_pos_as_xyz 
  x,y,z 
_cell_length_a                    45.14659695 
_cell_length_b                    70.34403671242438 
_cell_length_c                    47.14304841172601 
_cell_angle_alpha                 89.99902779650172 
_cell_angle_beta                  89.95072297604489 
_cell_angle_gamma                 89.96303161406243 
loop_ 
_atom_site_label 
_atom_site_type_symbol 
_atom_site_fract_x 
_atom_site_fract_y 
_atom_site_fract_z 
_atom_site_charge 
O1          O  0.65267459  0.27801801  0.12369902    -0.57500
C2          C  0.64236217  0.24851594  0.18838647     0.75100
O3          O  0.58171624  0.23077105  0.12138152    -0.58700
C4          C  0.65226842  0.27844045  0.09685945     0.75100
C5          C  0.67001393  0.21561246  0.10826380     0.77500
Cd6        Cd  0.63169556  0.24606963  0.12842744     1.37500
O7          O  0.65322941  0.26090780  0.17187097    -0.57500
O8          O  0.66733674  0.21983350  0.13419289    -0.56300
C9          C  0.56766285  0.24586469  0.12715659     0.77500
O10         O  0.65385829  0.22499793  0.09139522    -0.58700
O11         O  0.62806862  0.23505262  0.17703155    -0.57100
O12         O  0.64195489  0.26384574  0.08471543    -0.57100
O13         O  0.58297452  0.26051125  0.13166762    -0.56300
O14         O  0.66216145  0.76208210  0.77927979    -0.57500
C15         C  0.64110093  0.79472123  0.71247661     0.75100
O16         O  0.59211831  0.81095531  0.78368050    -0.58700
C17         C  0.65479400  0.76006868  0.80502641     0.75100
C18         C  0.68146006  0.81980368  0.79574081     0.77500
Cd19       Cd  0.63835469  0.79340168  0.77316669     1.37500
O20         O  0.65009550  0.78034636  0.72612048    -0.57500
O21         O  0.68726584  0.80874702  0.77536486    -0.56300
C22         C  0.57529670  0.79724164  0.77714377     0.77500
O23         O  0.65503824  0.81938871  0.80475861    -0.58700
O24         O  0.63154726  0.80861797  0.72683908    -0.57100
O25         O  0.63879499  0.77311420  0.81536316    -0.57100
O26         O  0.58761506  0.78168266  0.77062907    -0.56300
O27         O  0.83855602  0.13057987  0.01143526    -0.57500
C28         C  0.94572452  0.12647753  0.03659757     0.75100
O29         O  0.89105932  0.09623727  0.97106867    -0.58700
C30         C  0.84166890  0.13930925  0.03469904     0.75100
C31         C  0.90171588  0.14827055  0.95518233     0.77500
Cd32       Cd  0.89145547  0.12383224  0.00375849     1.37500
O33         O  0.93336584  0.14072455  0.02532534    -0.57500
O34         O  0.92088331  0.13645452  0.96365935    -0.56300
C35         C  0.87924666  0.08470715  0.98831418     0.77500
O36         O  0.87701337  0.14773523  0.96785457    -0.58700
O37         O  0.93198847  0.11087845  0.03417285    -0.57100
O38         O  0.86788783  0.14057130  0.04395151    -0.57100
O39         O  0.87316917  0.09132842  0.01255684    -0.56300
O40         O  0.92944228  0.90069594  0.89236522    -0.57500
C41         C  0.84329798  0.89173410  0.89689187     0.75100
O42         O  0.88139726  0.88938331  0.97525629    -0.58700
C43         C  0.94895152  0.91122926  0.90354097     0.75100
C44         C  0.87908114  0.94512565  0.94428882     0.77500
Cd45       Cd  0.89184935  0.90647596  0.92964637     1.37500
O46         O  0.83914983  0.90012956  0.92025065    -0.57500
O47         O  0.87718919  0.93913719  0.91903033    -0.56300
C48         C  0.90253422  0.87770855  0.97247493     0.77500
O49         O  0.88638691  0.93303502  0.96294072    -0.58700
O50         O  0.86975857  0.89075491  0.88819206    -0.57100
O51         O  0.94114830  0.92022637  0.92556661    -0.57100
O52         O  0.91841616  0.87984168  0.95068336    -0.56300
O53         O  0.65861395  0.26283514  0.23210457    -0.57500
C54         C  0.66379293  0.28062589  0.31817276     0.75100
O55         O  0.59725790  0.23664457  0.29673485    -0.58700
C56         C  0.64490651  0.24963071  0.21935525     0.75100
C57         C  0.68710214  0.22134434  0.29470745     0.77500
Cd58       Cd  0.64490371  0.25069222  0.28053004     1.37500
O59         O  0.66296867  0.28303932  0.29152325    -0.57500
O60         O  0.69431412  0.23689340  0.28311464    -0.56300
C61         C  0.58204277  0.25134153  0.29126361     0.77500
O62         O  0.65965228  0.21898899  0.29916181    -0.58700
O63         O  0.65612549  0.26437436  0.32704868    -0.57100
O64         O  0.63235445  0.23732918  0.23469907    -0.57100
O65         O  0.59595286  0.26564802  0.28197210    -0.56300
O66         O  0.65466926  0.76285848  0.61160937    -0.57500
C67         C  0.64137297  0.79519694  0.68149454     0.75100
O68         O  0.65940173  0.82627435  0.60150384    -0.58700
C69         C  0.65399025  0.76413828  0.58482141     0.75100
C70         C  0.57798852  0.79745115  0.61207559     0.77500
Cd71       Cd  0.64049911  0.79587555  0.62080149     1.37500
O72         O  0.65227829  0.78173687  0.66704292    -0.57500
O73         O  0.59127705  0.78305084  0.62170605    -0.56300
C74         C  0.68605719  0.82329898  0.60878194     0.77500
O75         O  0.59375733  0.81166295  0.60527771    -0.58700
O76         O  0.63039399  0.80902458  0.66794266    -0.57100
O77         O  0.64805171  0.78037766  0.57475890    -0.57100
O78         O  0.69113555  0.80772712  0.62123196    -0.56300
O79         O  0.87531326  0.90498407  0.54457988    -0.57500
C80         C  0.95599082  0.91219242  0.53240698     0.75100
O81         O  0.93000333  0.90707995  0.45906041    -0.58700
C82         C  0.84998615  0.90387692  0.53324584     0.75100
C83         C  0.89042770  0.95658322  0.48746146     0.77500
Cd84       Cd  0.90109882  0.91701969  0.50168435     1.37500
O85         O  0.94128705  0.89825381  0.52305775    -0.57500
O86         O  0.89550835  0.95109485  0.51252052    -0.56300
C87         C  0.91346954  0.89324571  0.45243272     0.77500
O88         O  0.88979575  0.94368671  0.46875698    -0.58700
O89         O  0.94433534  0.92841393  0.52917544    -0.57100
O90         O  0.84851169  0.90908756  0.50764283    -0.57100
O91         O  0.89069334  0.89107883  0.46777530    -0.56300
O92         O  0.87860266  0.14929561  0.37856143    -0.57500
C93         C  0.95969036  0.13983167  0.39991467     0.75100
O94         O  0.91163317  0.14540435  0.47159574    -0.58700
C95         C  0.85222092  0.14928003  0.38761436     0.75100
C96         C  0.89226808  0.09640452  0.43689939     0.77500
Cd97       Cd  0.90074273  0.13603827  0.42218528     1.37500
O98         O  0.93966983  0.13187306  0.38534845    -0.57500
O99         O  0.88166818  0.10971703  0.45182325    -0.56300
C100        C  0.90603060  0.16289332  0.46803865     0.77500
O101        O  0.90593824  0.10148316  0.41475696    -0.58700
O102        O  0.95221041  0.14573032  0.42417283    -0.57100
O103        O  0.84838704  0.14283197  0.41238721    -0.57100
O104        O  0.89693197  0.16758806  0.44362201    -0.56300
O105        O  0.46523991  0.26379289  0.18840699    -0.57500
C106        C  0.45360180  0.28331927  0.11082890     0.75100
O107        O  0.51887433  0.23227863  0.12757516    -0.58700
C108        C  0.47581634  0.24987270  0.20202723     0.75100
C109        C  0.43063327  0.22150845  0.12504119     0.77500
Cd110      Cd  0.47299402  0.24992734  0.14148844     1.37500
O111        O  0.45111848  0.28230974  0.13753742    -0.57500
O112        O  0.42542846  0.23279819  0.14531385    -0.56300
C113        C  0.53538897  0.24671057  0.13007191     0.77500
O114        O  0.45545037  0.22340613  0.11290272    -0.58700
O115        O  0.46458703  0.26888578  0.09875836    -0.57100
O116        O  0.48447594  0.23570441  0.18774687    -0.57100
O117        O  0.52289936  0.26218227  0.13658667    -0.56300
O118        O  0.47020424  0.78758852  0.72162180    -0.57500
C119        C  0.45947731  0.77178686  0.80276103     0.75100
O120        O  0.53014336  0.81510029  0.77940224    -0.58700
C121        C  0.47928408  0.80130550  0.70663305     0.75100
C122        C  0.44013165  0.83170676  0.78629749     0.77500
Cd123      Cd  0.48041415  0.80238084  0.76765372     1.37500
O124        O  0.45211363  0.77301432  0.77690136    -0.57500
O125        O  0.43301878  0.81838379  0.76971091    -0.56300
C126        C  0.54309501  0.79929086  0.77564221     0.77500
O127        O  0.46716810  0.83225453  0.79356153    -0.58700
O128        O  0.47591774  0.78491438  0.81216050    -0.57100
O129        O  0.48831604  0.81591185  0.71971168    -0.57100
O130        O  0.52704402  0.78525123  0.76915274    -0.56300
O131        O  0.24821185  0.14170755  0.04400977    -0.57500
C132        C  0.16123757  0.13118324  0.02518494     0.75100
O133        O  0.22074829  0.16275912  0.98392711    -0.58700
C134        C  0.27206817  0.14508438  0.03074349     0.75100
C135        C  0.23488825  0.09080646  0.98755443     0.77500
Cd136      Cd  0.22092658  0.13001654  0.00179383     1.37500
O137        O  0.16740144  0.13319282  0.99924288    -0.57500
O138        O  0.22745657  0.09612885  0.01212328    -0.56300
C139        C  0.21371507  0.15868019  0.95864138     0.77500
O140        O  0.23630110  0.10381754  0.96906800    -0.58700
O141        O  0.18304679  0.12796476  0.04139292    -0.57100
O142        O  0.27227302  0.14094517  0.00467598    -0.57100
O143        O  0.21034816  0.14116211  0.95322080    -0.56300
O144        O  0.25283565  0.90233041  0.87805407    -0.57500
C145        C  0.16808004  0.90965222  0.89955033     0.75100
O146        O  0.23397918  0.88352414  0.94802474    -0.58700
C147        C  0.27813316  0.90058121  0.88935830     0.75100
C148        C  0.23909715  0.95227796  0.93512244     0.77500
Cd149      Cd  0.22776653  0.91299366  0.92220969     1.37500
O150        O  0.18143205  0.89550505  0.91003295    -0.57500
O151        O  0.23224022  0.94655456  0.91058209    -0.56300
C152        C  0.22242255  0.88910397  0.97101293     0.77500
O153        O  0.24171233  0.93957670  0.95401613    -0.58700
O154        O  0.18288343  0.92485411  0.89831699    -0.57100
O155        O  0.27993087  0.90506387  0.91522060    -0.57100
O156        O  0.21394703  0.90628429  0.97187561    -0.56300
O157        O  0.46340962  0.28389287  0.29878968    -0.57500
C158        C  0.47846840  0.25038682  0.23284435     0.75100
O159        O  0.53483301  0.23734460  0.30181165    -0.58700
C160        C  0.46840958  0.28514202  0.32512993     0.75100
C161        C  0.44364412  0.22579265  0.31562408     0.77500
Cd162      Cd  0.48582418  0.25248186  0.29288576     1.37500
O163        O  0.47143168  0.26508498  0.24674931    -0.57500
O164        O  0.43661208  0.23848267  0.29789201    -0.56300
C165        C  0.54966295  0.25173352  0.29406353     0.77500
O166        O  0.47079962  0.22496447  0.32235752    -0.58700
O167        O  0.48836742  0.23636749  0.24673785    -0.57100
O168        O  0.48215069  0.27135942  0.33634605    -0.57100
O169        O  0.53512086  0.26645433  0.28753135    -0.56300
O170        O  0.45859455  0.76510736  0.60905736    -0.57500
C171        C  0.47977876  0.80005867  0.67562881     0.75100
O172        O  0.53084145  0.81176740  0.60256415    -0.58700
C173        C  0.46319952  0.76443049  0.58256302     0.75100
C174        C  0.44213172  0.82525024  0.59608976     0.77500
Cd175      Cd  0.48258968  0.79683935  0.61507429     1.37500
O176        O  0.47162038  0.78510195  0.66286511    -0.57500
O177        O  0.43651966  0.81419097  0.61652456    -0.56300
C178        C  0.54569845  0.79746980  0.61058069     0.77500
O179        O  0.46714355  0.82337495  0.58419790    -0.58700
O180        O  0.48879658  0.81370048  0.66041089    -0.57100
O181        O  0.47613717  0.77864832  0.57180647    -0.57100
O182        O  0.53133599  0.78306633  0.61875096    -0.56300
O183        O  0.26289657  0.14262828  0.39771097    -0.57500
C184        C  0.17424417  0.13582157  0.40712555     0.75100
O185        O  0.24382720  0.10532681  0.43101837    -0.58700
C186        C  0.28097145  0.15286793  0.41135823     0.75100
C187        C  0.21171269  0.16472753  0.48117823     0.77500
Cd188      Cd  0.22865295  0.13808732  0.43815191     1.37500
O189        O  0.18027662  0.12492566  0.42767974    -0.57500
O190        O  0.23088667  0.15199862  0.48591966    -0.56300
C191        C  0.24252849  0.10046747  0.45681772     0.77500
O192        O  0.20062927  0.16492251  0.45654809    -0.58700
O193        O  0.19415586  0.14756437  0.39997096    -0.57100
O194        O  0.27468702  0.15586087  0.43705251    -0.57100
O195        O  0.23482039  0.11318234  0.47428039    -0.56300
O196        O  0.19059414  0.91133608  0.53627646    -0.57500
C197        C  0.27236084  0.90406318  0.52534084     0.75100
O198        O  0.18960807  0.90373496  0.46597014    -0.58700
C199        C  0.16952924  0.92230388  0.52938045     0.75100
C200        C  0.23845839  0.96067988  0.48528286     0.77500
Cd201      Cd  0.22322476  0.92153384  0.49694032     1.37500
O202        O  0.24656034  0.90372330  0.53591858    -0.57500
O203        O  0.24385335  0.95271881  0.50876828    -0.56300
C204        C  0.20927943  0.89507738  0.45206979     0.77500
O205        O  0.22617989  0.95035132  0.46671936    -0.58700
O206        O  0.27525587  0.91293804  0.50214496    -0.57100
O207        O  0.17451316  0.93367366  0.50914825    -0.57100
O208        O  0.23573434  0.89959059  0.45762953    -0.56300
O209        O  0.14255321  0.28550238  0.69216319    -0.57500
C210        C  0.14469334  0.26784176  0.61325839     0.75100
O211        O  0.07723472  0.31548227  0.64043725    -0.58700
C212        C  0.13428648  0.29953299  0.70696982     0.75100
C213        C  0.16650883  0.32705230  0.62544320     0.77500
Cd214      Cd  0.12586045  0.29932786  0.64678184     1.37500
O215        O  0.13903423  0.26575746  0.63938271    -0.57500
O216        O  0.17376274  0.31437867  0.64316114    -0.56300
C217        C  0.06280334  0.30006503  0.64095803     0.77500
O218        O  0.13953717  0.32739136  0.61798526    -0.58700
O219        O  0.14051311  0.28420353  0.60287504    -0.57100
O220        O  0.12299165  0.31345150  0.69391806    -0.57100
O221        O  0.07755824  0.28488005  0.64275831    -0.56300
O222        O  0.16309963  0.76725470  0.24371450    -0.57500
C223        C  0.16480525  0.78388600  0.32493832     0.75100
O224        O  0.10486630  0.73678901  0.30678685    -0.58700
C225        C  0.15870900  0.75226565  0.22948071     0.75100
C226        C  0.19881568  0.72672504  0.30611671     0.77500
Cd227      Cd  0.15202421  0.75202507  0.28974899     1.37500
O228        O  0.16845925  0.78429445  0.29828284    -0.57500
O229        O  0.20167604  0.74456372  0.30559884    -0.56300
C230        C  0.08880510  0.74993436  0.29661210     0.77500
O231        O  0.17338281  0.72032310  0.29983592    -0.58700
O232        O  0.15499302  0.76847323  0.33528309    -0.57100
O233        O  0.15264280  0.73733419  0.24316012    -0.57100
O234        O  0.10200768  0.76339791  0.28427442    -0.56300
O235        O  0.35408573  0.40086058  0.53742215    -0.57500
C236        C  0.43187032  0.41209013  0.52115555     0.75100
O237        O  0.39759829  0.40647526  0.44869594    -0.58700
C238        C  0.32750538  0.40124480  0.52908101     0.75100
C239        C  0.36739933  0.45495465  0.47913408     0.77500
Cd240      Cd  0.37489546  0.41530019  0.49434858     1.37500
O241        O  0.41431373  0.42542460  0.52767722    -0.57500
O242        O  0.35614166  0.44198412  0.46392672    -0.56300
C243        C  0.38630343  0.39001257  0.44748044     0.77500
O244        O  0.38071136  0.44939952  0.50117555    -0.58700
O245        O  0.42200689  0.39983586  0.50399989    -0.57100
O246        O  0.32284475  0.40885842  0.50519266    -0.57100
O247        O  0.36743921  0.38608377  0.46644167    -0.56300
O248        O  0.39031848  0.64313614  0.36246576    -0.57500
C249        C  0.47375469  0.62906450  0.37673231     0.75100
O250        O  0.43004307  0.63979062  0.45215842    -0.58700
C251        C  0.36484958  0.64371748  0.37376949     0.75100
C252        C  0.39781185  0.59163683  0.42308078     0.77500
Cd253      Cd  0.41525467  0.62891974  0.40399936     1.37500
O254        O  0.46442589  0.64231543  0.39243324    -0.57500
O255        O  0.40671106  0.60416889  0.44034916    -0.56300
C256        C  0.42036783  0.65655039  0.44838632     0.77500
O257        O  0.39776605  0.59632943  0.39716758    -0.58700
O258        O  0.45555514  0.61569264  0.37255055    -0.57100
O259        O  0.36273215  0.63651579  0.39821048    -0.57100
O260        O  0.40789872  0.65975277  0.42489188    -0.56300
O261        O  0.16306554  0.26947106  0.80684021    -0.57500
C262        C  0.13632724  0.29949773  0.73788292     0.75100
O263        O  0.08432903  0.31165921  0.81171928    -0.58700
C264        C  0.15491618  0.26740576  0.83236154     0.75100
C265        C  0.17281794  0.32853466  0.81858268     0.77500
Cd266      Cd  0.13404715  0.29881810  0.79850061     1.37500
O267        O  0.14564290  0.28519679  0.75153533    -0.57500
O268        O  0.18054661  0.31614825  0.80060665    -0.56300
C269        C  0.07050142  0.29723695  0.80254181     0.77500
O270        O  0.14603714  0.32790812  0.82657454    -0.58700
O271        O  0.12762516  0.31363708  0.75221802    -0.57100
O272        O  0.13699366  0.27973385  0.84166384    -0.57100
O273        O  0.08598291  0.28380112  0.79268860    -0.56300
O274        O  0.16916928  0.78444327  0.13169733    -0.57500
C275        C  0.15869792  0.75219109  0.19856459     0.75100
O276        O  0.10385038  0.73416932  0.13154583    -0.58700
C277        C  0.16588722  0.78472265  0.10507561     0.75100
C278        C  0.19081671  0.72319802  0.11679436     0.77500
Cd279      Cd  0.15092335  0.75187540  0.13842199     1.37500
O280        O  0.16211519  0.76722472  0.18425598    -0.57500
O281        O  0.19933905  0.73642705  0.13307526    -0.56300
C282        C  0.08719478  0.74828658  0.13614966     0.77500
O283        O  0.16357138  0.72326418  0.11049012    -0.58700
O284        O  0.15353451  0.73708281  0.18496369    -0.57100
O285        O  0.15625832  0.76956401  0.09391951    -0.57100
O286        O  0.09985531  0.76396890  0.14085267    -0.56300
O287        O  0.44124571  0.63737960  0.00833353    -0.57500
C288        C  0.34913353  0.65162683  0.01426748     0.75100
O289        O  0.38660475  0.65255379  0.93194535    -0.58700
C290        C  0.45850266  0.63237726  0.98833795     0.75100
C291        C  0.38113439  0.59737342  0.96728691     0.77500
Cd292      Cd  0.39558509  0.63653657  0.97817944     1.37500
O293        O  0.34709850  0.65081107  0.98756762    -0.57500
O294        O  0.38763545  0.60365436  0.99161427    -0.56300
C295        C  0.40434067  0.66611442  0.93714460     0.77500
O296        O  0.37942084  0.60956772  0.94755770    -0.58700
O297        O  0.37290606  0.64527911  0.02501072    -0.57100
O298        O  0.44622144  0.62886319  0.96484766    -0.57100
O299        O  0.41615635  0.66635571  0.96147046    -0.56300
O300        O  0.42685281  0.40189409  0.89704305    -0.57500
C301        C  0.34385598  0.39916190  0.90481680     0.75100
O302        O  0.38142152  0.40127108  0.98034588    -0.58700
C303        C  0.44677535  0.41438296  0.90041537     0.75100
C304        C  0.38569294  0.45612432  0.93820942     0.77500
Cd305      Cd  0.39372242  0.41581662  0.93331209     1.37500
O306        O  0.34202416  0.41532061  0.91639814    -0.57500
O307        O  0.37923886  0.44513419  0.95862596    -0.56300
C308        C  0.40684762  0.39424318  0.98443981     0.77500
O309        O  0.39492481  0.44838582  0.91568707    -0.58700
O310        O  0.36901002  0.39134763  0.90550969    -0.57100
O311        O  0.44131596  0.42751220  0.91798599    -0.57100
O312        O  0.42608266  0.39832915  0.96600017    -0.56300
O313        O  0.94239320  0.26404401  0.80610309    -0.57500
C314        C  0.96890341  0.29219800  0.73860365     0.75100
O315        O  0.93317546  0.31431805  0.79530375    -0.58700
C316        C  0.95466798  0.25899689  0.82900881     0.75100
C317        C  0.03809698  0.29593769  0.80240921     0.77500
Cd318      Cd  0.97457994  0.29218000  0.79880251     1.37500
O319        O  0.96708549  0.27672031  0.75223296    -0.57500
O320        O  0.02542884  0.28131801  0.79273467    -0.56300
C321        C  0.93571419  0.32137771  0.81979801     0.77500
O322        O  0.02146984  0.30920078  0.81116401    -0.58700
O323        O  0.97297251  0.30720855  0.75281673    -0.57100
O324        O  0.97558235  0.26945863  0.83757581    -0.57100
O325        O  0.95676659  0.31512843  0.83488989    -0.56300
O326        O  0.97624598  0.75841114  0.18754613    -0.57500
C327        C  0.96705306  0.77272071  0.10439460     0.75100
O328        O  0.04163886  0.73097611  0.13285742    -0.58700
C329        C  0.98590039  0.74504788  0.20296615     0.75100
C330        C  0.95334464  0.71345942  0.12301556     0.77500
Cd331      Cd  0.99118468  0.74394121  0.14198411     1.37500
O332        O  0.98014369  0.75804628  0.09527788    -0.57500
O333        O  0.94526552  0.72585076  0.14087093    -0.56300
C334        C  0.05482247  0.74663188  0.13686948     0.77500
O335        O  0.98026605  0.71415813  0.11543721    -0.58700
O336        O  0.96593558  0.77443643  0.13113271    -0.57100
O337        O  0.99679954  0.73080900  0.19027783    -0.57100
O338        O  0.03872094  0.76087847  0.14227620    -0.56300
O339        O  0.77081681  0.41072007  0.91406297    -0.57500
C340        C  0.66062126  0.40928615  0.90672863     0.75100
O341        O  0.70039258  0.40500647  0.97708039    -0.58700
C342        C  0.76650883  0.39720426  0.89687398     0.75100
C343        C  0.73215760  0.45279537  0.94011355     0.77500
Cd344      Cd  0.71917156  0.41345385  0.92971960     1.37500
O345        O  0.68137748  0.41570809  0.89136214    -0.57500
O346        O  0.71898213  0.44748454  0.91781037    -0.56300
C347        C  0.71456437  0.38952514  0.97883951     0.77500
O348        O  0.73828969  0.43990591  0.95785335    -0.58700
O349        O  0.66736816  0.40506326  0.93190523    -0.57100
O350        O  0.73993830  0.39183504  0.89391099    -0.57100
O351        O  0.73271838  0.38610137  0.95901296    -0.56300
O352        O  0.79395102  0.64343034  0.99051762    -0.57500
C353        C  0.68135624  0.63042459  0.99876549     0.75100
O354        O  0.73700845  0.64048260  0.93051209    -0.58700
C355        C  0.79215876  0.64418060  0.01730953     0.75100
C356        C  0.75643945  0.59253156  0.97342204     0.77500
Cd357      Cd  0.74285164  0.63191323  0.98179252     1.37500
O358        O  0.69380910  0.61743599  0.98463266    -0.57500
O359        O  0.74789259  0.59919650  0.99697939    -0.56300
C360        C  0.73284132  0.65803546  0.93510250     0.77500
O361        O  0.76018011  0.60447101  0.95353958    -0.58700
O362        O  0.69803412  0.64378404  0.00709985    -0.57100
O363        O  0.76751154  0.63915257  0.02771563    -0.57100
O364        O  0.73494584  0.66328802  0.96068120    -0.56300
O365        O  0.94475502  0.26578112  0.63451320    -0.57500
C366        C  0.96719666  0.29304393  0.70774904     0.75100
O367        O  0.01456104  0.31421196  0.64039288    -0.58700
C368        C  0.95251568  0.26657794  0.60867813     0.75100
C369        C  0.92417788  0.32367883  0.63090455     0.77500
Cd370      Cd  0.96789460  0.29622329  0.64740500     1.37500
O371        O  0.96254569  0.27849729  0.69258396    -0.57500
O372        O  0.91794587  0.30910421  0.64544438    -0.56300
C373        C  0.03051846  0.29939717  0.64109650     0.77500
O374        O  0.95124297  0.32606334  0.62478286    -0.58700
O375        O  0.97095447  0.30865276  0.69502069    -0.57100
O376        O  0.96725754  0.28105043  0.60137149    -0.57100
O377        O  0.01736944  0.28362331  0.64329947    -0.56300
O378        O  0.97317675  0.78344602  0.30038002    -0.57500
C379        C  0.98596081  0.74642923  0.23403440     0.75100
O380        O  0.04148620  0.73715417  0.31039369    -0.58700
C381        C  0.97588599  0.78416122  0.32710795     0.75100
C382        C  0.95276718  0.72293180  0.31786066     0.77500
Cd383      Cd  0.99264487  0.75062244  0.29466007     1.37500
O384        O  0.97779091  0.76139330  0.24673393    -0.57500
O385        O  0.94381649  0.73779720  0.30542298    -0.56300
C386        C  0.05636722  0.74987815  0.29782433     0.77500
O387        O  0.98055614  0.72059614  0.31910982    -0.58700
O388        O  0.99554429  0.73303914  0.24938134    -0.57100
O389        O  0.98673967  0.76947006  0.33860752    -0.57100
O390        O  0.04187740  0.76278672  0.28540785    -0.56300
O391        O  0.77262288  0.63474147  0.38500730    -0.57500
C392        C  0.68744727  0.62311606  0.38519482     0.75100
O393        O  0.73428229  0.60080745  0.45833393    -0.58700
C394        C  0.79219102  0.64179777  0.40105588     0.75100
C395        C  0.71419566  0.65281628  0.46422182     0.77500
Cd396      Cd  0.73748130  0.62629761  0.42316548     1.37500
O397        O  0.70570485  0.63672050  0.38324862    -0.57500
O398        O  0.70361367  0.65087431  0.43960364    -0.56300
C399        C  0.74685283  0.58827764  0.44329521     0.77500
O400        O  0.73597247  0.64222929  0.47023118    -0.58700
O401        O  0.69361786  0.61048999  0.40340491    -0.57100
O402        O  0.78651149  0.64138259  0.42728700    -0.57100
O403        O  0.75623442  0.59367456  0.41931633    -0.56300
O404        O  0.65900956  0.42406580  0.50548570    -0.57500
C405        C  0.75849958  0.39523339  0.53725823     0.75100
O406        O  0.69102670  0.38127565  0.48906564    -0.58700
C407        C  0.65032999  0.41681207  0.52856248     0.75100
C408        C  0.72697892  0.44999692  0.49309401     0.77500
Cd409      Cd  0.70950706  0.41173745  0.50669268     1.37500
O410        O  0.75739261  0.39615261  0.51052790    -0.57500
O411        O  0.72926526  0.44331036  0.51790229    -0.56300
C412        C  0.70030737  0.38308959  0.46388780     0.77500
O413        O  0.71762667  0.43863703  0.47430474    -0.58700
O414        O  0.73677051  0.40246111  0.55048535    -0.57100
O415        O  0.66959387  0.40763519  0.54248896    -0.57100
O416        O  0.71383231  0.39842035  0.45830960    -0.56300
C417        C  0.74881895  0.56823655  0.45276945    -0.19600
C418        C  0.76477473  0.55438202  0.43725024     0.36700
C419        C  0.76241096  0.53517878  0.44498254    -0.25500
C420        C  0.74460653  0.52955664  0.46782295     0.03100
C421        C  0.72962571  0.54335511  0.48403967     0.27900
C422        C  0.73214531  0.56258084  0.47652993    -0.24700
N423        N  0.78288552  0.55973293  0.41346152    -0.82000
H424        H  0.77417457  0.52445090  0.43290424     0.13700
C425        C  0.74102736  0.50907081  0.47382146     0.03100
N426        N  0.71115923  0.53772026  0.50744483    -0.80600
H427        H  0.71991661  0.57308839  0.48859563     0.18500
C428        C  0.75054891  0.50178465  0.49989487    -0.25500
C429        C  0.74719809  0.48242857  0.50643950     0.36600
C430        C  0.73368193  0.47015840  0.48645941    -0.19500
C431        C  0.72469135  0.47753197  0.46010601    -0.24700
C432        C  0.72804337  0.49688237  0.45366926     0.27900
H433        H  0.76076229  0.51126956  0.51513047     0.13700
N434        N  0.75742499  0.47529752  0.53328018    -0.82000
H435        H  0.71422918  0.46828825  0.44471215     0.18600
N436        N  0.71781071  0.50431402  0.42699117    -0.80600
H437        H  0.76600418  0.48629987  0.54571460     0.34200
H438        H  0.77503605  0.46603164  0.52918508     0.38700
H439        H  0.70887465  0.49347378  0.41447578     0.34100
H440        H  0.70053923  0.51380495  0.43126675     0.30800
H441        H  0.70173090  0.54962158  0.51721379     0.34200
H442        H  0.69362449  0.52973099  0.49923639     0.30800
H443        H  0.80043398  0.56788612  0.42126974     0.38700
H444        H  0.79235434  0.54774318  0.40397020     0.34200
C445        C  0.93154371  0.70937887  0.33062357    -0.19600
C446        C  0.93892989  0.69015199  0.33587313     0.36700
C447        C  0.91756431  0.67799400  0.34783012    -0.25500
C448        C  0.88924984  0.68473655  0.35462428     0.03100
C449        C  0.88209327  0.70397537  0.35015874     0.27900
C450        C  0.90322287  0.71606171  0.33796390    -0.24700
N451        N  0.96779624  0.68296812  0.32871266    -0.82000
H452        H  0.92282092  0.66317200  0.35157505     0.13700
C453        C  0.86685013  0.67157504  0.36609774     0.03100
N454        N  0.85359560  0.71121333  0.35857613    -0.80600
H455        H  0.89762325  0.73085966  0.33447754     0.18500
C456        C  0.86511095  0.66880691  0.39542648    -0.25500
C457        C  0.84190937  0.65817515  0.40740897     0.36600
C458        C  0.81954934  0.65065854  0.38954426    -0.19500
C459        C  0.82249821  0.65260472  0.35997824    -0.24700
C460        C  0.84603442  0.66291325  0.34807399     0.27900
H461        H  0.88161503  0.67529510  0.40900890     0.13700
N462        N  0.84083949  0.65529654  0.43758292    -0.82000
H463        H  0.80592903  0.64653928  0.34606123     0.18600
N464        N  0.84883362  0.66471516  0.31779387    -0.80600
H465        H  0.85854891  0.66215653  0.44753856     0.34200
H466        H  0.84373700  0.64075582  0.44127474     0.38700
H467        H  0.83201141  0.65717807  0.30753103     0.34100
H468        H  0.84583702  0.67900871  0.31249535     0.30800
H469        H  0.85215877  0.72579854  0.35452582     0.34200
H470        H  0.83751444  0.70470814  0.34596026     0.30800
H471        H  0.96984282  0.68345928  0.30663161     0.38700
H472        H  0.96972425  0.66867068  0.33449782     0.34200
C473        C  0.90051458  0.33642379  0.62045961    -0.19600
C474        C  0.90515283  0.35594032  0.61470571     0.36700
C475        C  0.88185921  0.36677714  0.60306180    -0.25500
C476        C  0.85442132  0.35837717  0.59697823     0.03100
C477        C  0.84950950  0.33917280  0.60372262     0.27900
C478        C  0.87253728  0.32841186  0.61542902    -0.24700
N479        N  0.93306542  0.36475957  0.62115575    -0.82000
H480        H  0.88530797  0.38163402  0.59797185     0.13700
C481        C  0.83133105  0.36915646  0.58166901     0.03100
N482        N  0.82120041  0.33062182  0.59807009    -0.80600
H483        H  0.86881125  0.31349426  0.61991877     0.18500
C484        C  0.82593131  0.36453488  0.55328609    -0.25500
C485        C  0.80246685  0.37286992  0.53827861     0.36600
C486        C  0.78387666  0.38621711  0.55210689    -0.19500
C487        C  0.78938128  0.39078187  0.58068796    -0.24700
C488        C  0.81300185  0.38236999  0.59561034     0.27900
H489        H  0.83991237  0.35408626  0.54294091     0.13700
N490        N  0.79688762  0.36719552  0.50946283    -0.82000
H491        H  0.77519064  0.40091057  0.59143593     0.18600
N492        N  0.81823205  0.38695905  0.62488860    -0.80600
H493        H  0.81064044  0.35587096  0.50367676     0.34200
H494        H  0.80293340  0.37854448  0.49637826     0.38700
H495        H  0.80278599  0.39696198  0.63201338     0.34100
H496        H  0.81472412  0.37462084  0.63679178     0.30800
H497        H  0.82124890  0.31629067  0.60395126     0.34200
H498        H  0.80555445  0.33738345  0.61095928     0.30800
H499        H  0.94866849  0.35960443  0.60668820     0.38700
H500        H  0.93188111  0.37942672  0.61773117     0.34200
C501        C  0.73988366  0.47298477  0.94505195    -0.19600
C502        C  0.76032508  0.47847469  0.96627820     0.36700
C503        C  0.76613243  0.49785662  0.97065734    -0.25500
C504        C  0.75208802  0.51180794  0.95429386     0.03100
C505        C  0.73205240  0.50639904  0.93285889     0.27900
C506        C  0.72639787  0.48703366  0.92825007    -0.24700
N507        N  0.77520911  0.46443680  0.98325689    -0.82000
H508        H  0.78161115  0.50216239  0.98699498     0.13700
C509        C  0.75721926  0.53211868  0.96072035     0.03100
N510        N  0.71701452  0.52063126  0.91634984    -0.80600
H511        H  0.71077637  0.48294008  0.91192425     0.18500
C512        C  0.76898326  0.54403659  0.93971162    -0.25500
C513        C  0.77084673  0.56378438  0.94388989     0.36600
C514        C  0.76007297  0.57173385  0.96944422    -0.19500
C515        C  0.75018524  0.55953409  0.99113285    -0.24700
C516        C  0.74868018  0.53981911  0.98705094     0.27900
H517        H  0.77618438  0.53790049  0.91977660     0.13700
N518        N  0.78315393  0.57571878  0.92213157    -0.82000
H519        H  0.74238083  0.56542372  0.01101302     0.18600
N520        N  0.73759598  0.52765917  0.00917710    -0.80600
H521        H  0.78958695  0.56761034  0.90458404     0.34200
H522        H  0.80249086  0.58178713  0.93029396     0.38700
H523        H  0.73252297  0.53555550  0.02733417     0.34100
H524        H  0.71771179  0.52171353  0.00209998     0.30800
H525        H  0.70307840  0.51429799  0.90138499     0.34200
H526        H  0.70337455  0.52834345  0.93011451     0.30800
H527        H  0.78927267  0.45677469  0.96982687     0.38700
H528        H  0.78877333  0.47092141  0.99839205     0.34200
C529        C  0.93154830  0.69987893  0.11071645    -0.19600
C530        C  0.93970251  0.68463138  0.09270495     0.36700
C531        C  0.91742426  0.67355441  0.07985835    -0.25500
C532        C  0.88726257  0.67783001  0.08356447     0.03100
C533        C  0.87915400  0.69282226  0.10186969     0.27900
C534        C  0.90128178  0.70335187  0.11563103    -0.24700
N535        N  0.97035228  0.68052313  0.08711859    -0.82000
H536        H  0.92360598  0.66192480  0.06599042     0.13700
C537        C  0.86443883  0.66748956  0.06668296     0.03100
N538        N  0.84849171  0.69781336  0.10556972    -0.80600
H539        H  0.89468589  0.71501763  0.12924675     0.18500
C540        C  0.84055401  0.65869632  0.08051372    -0.25500
C541        C  0.81689939  0.65065597  0.06514777     0.36600
C542        C  0.81736276  0.65111907  0.03506971    -0.19500
C543        C  0.84220887  0.65898947  0.02137847    -0.24700
C544        C  0.86546396  0.66736991  0.03677229     0.27900
H545        H  0.84001257  0.65856220  0.10349430     0.13700
N546        N  0.79253461  0.64214391  0.08012460    -0.82000
H547        H  0.84306064  0.65926430  0.99842031     0.18600
N548        N  0.88965536  0.67632570  0.02208700    -0.80600
H549        H  0.79678912  0.64175827  0.10191768     0.34200
H550        H  0.77419909  0.65106032  0.07757387     0.38700
H551        H  0.88725133  0.67486847  0.00013923     0.34100
H552        H  0.88868978  0.69088821  0.02643882     0.30800
H553        H  0.84626630  0.70912238  0.11980972     0.34200
H554        H  0.84056497  0.70266564  0.08603179     0.30800
H555        H  0.97855709  0.69145649  0.07431984     0.38700
H556        H  0.97238849  0.66807853  0.07514032     0.34200
C557        C  0.91435222  0.33557471  0.83042838    -0.19600
C558        C  0.89982942  0.34825104  0.81176740     0.36700
C559        C  0.87688163  0.35980507  0.82211389    -0.25500
C560        C  0.86821213  0.35880528  0.85054787     0.03100
C561        C  0.88325869  0.34666868  0.86943497     0.27900
C562        C  0.90651066  0.33530006  0.85923580    -0.24700
N563        N  0.90817076  0.34916488  0.78236067    -0.82000
H564        H  0.86514271  0.36924856  0.80784791     0.13700
C565        C  0.84189445  0.36947364  0.85991696     0.03100
N566        N  0.87404361  0.34543802  0.89857994    -0.80600
H567        H  0.91756247  0.32553083  0.87351356     0.18500
C568        C  0.81459023  0.36010745  0.86059123    -0.25500
C569        C  0.78922863  0.36912484  0.87134242     0.36600
C570        C  0.79151676  0.38787077  0.88202056    -0.19500
C571        C  0.81877491  0.39748669  0.88005235    -0.24700
C572        C  0.84395830  0.38850316  0.86875857     0.27900
H573        H  0.81327015  0.34553259  0.85323592     0.13700
N574        N  0.76150428  0.35908939  0.87208341    -0.82000
H575        H  0.82053056  0.41198007  0.88764418     0.18600
N576        N  0.87155747  0.39854796  0.86623239    -0.80600
H577        H  0.76347005  0.34584255  0.86219285     0.34200
H578        H  0.75649837  0.35634890  0.89335044     0.38700
H579        H  0.86921634  0.41256509  0.87326636     0.34100
H580        H  0.88682753  0.39201817  0.87975088     0.30800
H581        H  0.88701930  0.33556251  0.90955284     0.34200
H582        H  0.87794252  0.35865754  0.90798918     0.30800
H583        H  0.92993185  0.35420647  0.78143625     0.38700
H584        H  0.89507267  0.35904138  0.77152180     0.34200
C585        C  0.47598091  0.41309299  0.88657262    -0.19600
C586        C  0.49391318  0.42934642  0.88360506     0.36700
C587        C  0.52428715  0.42724515  0.87868555    -0.25500
C588        C  0.53708994  0.40912526  0.87653383     0.03100
C589        C  0.51855418  0.39293416  0.87601250     0.27900
C590        C  0.48804529  0.39509847  0.88097651    -0.24700
N591        N  0.48159625  0.44799128  0.88696592    -0.82000
H592        H  0.53816514  0.43980054  0.87901375     0.13700
C593        C  0.56956947  0.40726269  0.88058920     0.03100
N594        N  0.53112051  0.37431165  0.87229405    -0.80600
H595        H  0.47418988  0.38258412  0.88279849     0.18500
C596        C  0.57962192  0.39569532  0.90282161    -0.25500
C597        C  0.60948816  0.39532854  0.91066460     0.36600
C598        C  0.62984648  0.40726386  0.89645256    -0.19500
C599        C  0.62008878  0.41835026  0.87350326    -0.24700
C600        C  0.59010323  0.41846397  0.86538896     0.27900
H601        H  0.56385061  0.38740038  0.91494494     0.13700
N602        N  0.61902966  0.38310614  0.93336566    -0.82000
H603        H  0.63567323  0.42745308  0.86250582     0.18600
N604        N  0.58029991  0.43023047  0.84230307    -0.80600
H605        H  0.60116044  0.37556008  0.94187466     0.34200
H606        H  0.63339498  0.37300064  0.92465873     0.38700
H607        H  0.59808556  0.43774792  0.83358494     0.34100
H608        H  0.57234274  0.42124247  0.82638430     0.30800
H609        H  0.51461014  0.36390565  0.87302720     0.34200
H610        H  0.54034533  0.37377712  0.85196536     0.30800
H611        H  0.49260776  0.45472332  0.90368241     0.38700
H612        H  0.48580576  0.45568567  0.86842352     0.34200
C613        C  0.49129218  0.63103394  0.99189838    -0.19600
C614        C  0.51059119  0.62850516  0.96837061     0.36700
C615        C  0.54137401  0.62805710  0.97273831    -0.25500
C616        C  0.55348224  0.63001458  0.99989324     0.03100
C617        C  0.53456262  0.63253500  0.02333551     0.27900
C618        C  0.50367381  0.63303422  0.01913034    -0.24700
N619        N  0.49913252  0.62679245  0.94002641    -0.82000
H620        H  0.55614123  0.62623320  0.95479805     0.13700
C621        C  0.58615554  0.62949992  0.00314415     0.03100
N622        N  0.54684848  0.63458073  0.05127874    -0.80600
H623        H  0.48922532  0.63502427  0.03724341     0.18500
C624        C  0.60141618  0.64618070  0.01024415    -0.25500
C625        C  0.63260224  0.64668834  0.01064746     0.36600
C626        C  0.64880168  0.63010605  0.00359891    -0.19500
C627        C  0.63326555  0.61321741  0.99772132    -0.24700
C628        C  0.60216732  0.61275360  0.99745337     0.27900
H629        H  0.58889950  0.65899996  0.01462417     0.13700
N630        N  0.64767485  0.66419397  0.01682612    -0.82000
H631        H  0.64542253  0.60039518  0.99252215     0.18600
N632        N  0.58670362  0.59545537  0.99082094    -0.80600
H633        H  0.63247759  0.67521412  0.01999892     0.34200
H634        H  0.65873006  0.66237270  0.03611400     0.38700
H635        H  0.60169430  0.58442449  0.98690641     0.34100
H636        H  0.57456049  0.59153670  0.00878660     0.30800
H637        H  0.52999827  0.63642264  0.06625712     0.34200
H638        H  0.55753440  0.62183916  0.05636691     0.30800
H639        H  0.48875286  0.61355002  0.93853807     0.38700
H640        H  0.51634801  0.62659732  0.92517437     0.34200
C641        C  0.37760175  0.57669741  0.96247154    -0.19600
C642        C  0.36231553  0.56916236  0.93891498     0.36700
C643        C  0.36160291  0.54937577  0.93469326    -0.25500
C644        C  0.37620387  0.53708781  0.95347208     0.03100
C645        C  0.39118240  0.54450623  0.97714223     0.27900
C646        C  0.39152312  0.56420010  0.98153447    -0.24700
N647        N  0.34744343  0.58146605  0.91935822    -0.82000
H648        H  0.35009333  0.54360592  0.91646146     0.13700
C649        C  0.37711789  0.51648588  0.94769827     0.03100
N650        N  0.40665403  0.53199199  0.99617819    -0.80600
H651        H  0.40355224  0.56983641  0.99954277     0.18500
C652        C  0.40224421  0.50889183  0.93445015    -0.25500
C653        C  0.40528554  0.48920166  0.93054526     0.36600
C654        C  0.38279460  0.47693635  0.94054498    -0.19500
C655        C  0.35760795  0.48459752  0.95374046    -0.24700
C656        C  0.35449107  0.50433039  0.95733457     0.27900
H657        H  0.41972080  0.51838810  0.92754467     0.13700
N658        N  0.43175780  0.48161387  0.91785028    -0.82000
H659        H  0.34039345  0.47514035  0.96132155     0.18600
N660        N  0.32867323  0.51208129  0.97095160    -0.80600
H661        H  0.44698902  0.49247028  0.91377172     0.34200
H662        H  0.42597651  0.47601294  0.89808708     0.38700
H663        H  0.31395923  0.50122373  0.97649873     0.34100
H664        H  0.33547913  0.51841259  0.98991710     0.30800
H665        H  0.41711541  0.53973637  0.01222728     0.34200
H666        H  0.39089727  0.52338323  0.00612675     0.30800
H667        H  0.32507660  0.57763167  0.91889697     0.38700
H668        H  0.35629840  0.57908185  0.89916678     0.34200
C669        C  0.21199654  0.70879533  0.10559119    -0.19600
C670        C  0.20377025  0.69478068  0.08544866     0.36700
C671        C  0.22564708  0.68271116  0.07399625    -0.25500
C672        C  0.25539980  0.68448587  0.08198113     0.03100
C673        C  0.26339984  0.69773795  0.10293970     0.27900
C674        C  0.24164622  0.70963989  0.11465877    -0.24700
N675        N  0.17363082  0.69319505  0.07591353    -0.82000
H676        H  0.21979375  0.67259549  0.05759653     0.13700
C677        C  0.27859865  0.67514288  0.06472472     0.03100
N678        N  0.29391966  0.69973751  0.11109153    -0.80600
H679        H  0.24819518  0.72009452  0.13030929     0.18500
C680        C  0.28949565  0.68505285  0.04119964    -0.25500
C681        C  0.31227037  0.67751768  0.02435728     0.36600
C682        C  0.32497145  0.65983089  0.03164899    -0.19500
C683        C  0.31410026  0.64986838  0.05534278    -0.24700
C684        C  0.29063091  0.65727438  0.07179492     0.27900
H685        H  0.28013328  0.69881563  0.03601215     0.13700
N686        N  0.32327446  0.68813075  0.00050457    -0.82000
H687        H  0.32359009  0.63617576  0.06067261     0.18600
N688        N  0.27869251  0.64666833  0.09521914    -0.80600
H689        H  0.31304375  0.70145011  0.99939118     0.34200
H690        H  0.31700026  0.68089347  0.98211189     0.38700
H691        H  0.28968864  0.63365522  0.09727717     0.34100
H692        H  0.28290830  0.65431119  0.11378394     0.30800
H693        H  0.29629641  0.71049947  0.12621495     0.34200
H694        H  0.30039361  0.68709552  0.12094495     0.30800
H695        H  0.16893998  0.70525754  0.06376019     0.38700
H696        H  0.17122598  0.68155900  0.06230620     0.34200
C697        C  0.31784793  0.38984207  0.89172946    -0.19600
C698        C  0.31750244  0.37010153  0.88593388     0.36700
C699        C  0.29183296  0.36184916  0.87467923    -0.25500
C700        C  0.26687403  0.37287186  0.86818052     0.03100
C701        C  0.26700793  0.39249083  0.87406141     0.27900
C702        C  0.29241089  0.40075499  0.88605188    -0.24700
N703        N  0.34290611  0.35839141  0.89178675    -0.82000
H704        H  0.29142874  0.34671670  0.87035661     0.13700
C705        C  0.24150088  0.36357935  0.85392030     0.03100
N706        N  0.24156901  0.40395192  0.86743423    -0.80600
H707        H  0.29247721  0.41585638  0.89056796     0.18500
C708        C  0.21349482  0.36344044  0.86682700    -0.25500
C709        C  0.18997110  0.35287090  0.85515749     0.36600
C710        C  0.19477385  0.34226911  0.83000823    -0.19500
C711        C  0.22242480  0.34346798  0.81639460    -0.24700
C712        C  0.24574653  0.35399164  0.82803211     0.27900
H713        H  0.21035558  0.37096030  0.88666577     0.13700
N714        N  0.16173797  0.35246912  0.86926186    -0.82000
H715        H  0.22619499  0.33574290  0.79684136     0.18600
N716        N  0.27401500  0.35470599  0.81396766    -0.80600
H717        H  0.16168849  0.36168487  0.88666714     0.34200
H718        H  0.15882980  0.33879237  0.87747738     0.38700
H719        H  0.27360682  0.34676562  0.79522535     0.34100
H720        H  0.27786154  0.36882396  0.80809876     0.30800
H721        H  0.24522127  0.41811415  0.87317510     0.34200
H722        H  0.23889060  0.40378993  0.84540821     0.30800
H723        H  0.35922650  0.36188485  0.87693137     0.38700
H724        H  0.33800246  0.34404327  0.88840986     0.43800
C725        C  0.65918169  0.62249459  0.36892868    -0.19600
C726        C  0.64839614  0.63839022  0.35368829     0.36700
C727        C  0.61841289  0.63888202  0.34541251    -0.25500
C728        C  0.59894086  0.62402734  0.35248805     0.03100
C729        C  0.61071303  0.60717423  0.36428361     0.27900
C730        C  0.64070339  0.60657484  0.37218474    -0.24700
N731        N  0.66719675  0.65448369  0.34835020    -0.82000
H732        H  0.60959886  0.65155968  0.33544782     0.13700
C733        C  0.56628759  0.62758319  0.35301285     0.03100
N734        N  0.59182295  0.59117292  0.37003065    -0.80600
H735        H  0.64904405  0.59405510  0.38292669     0.18500
C736        C  0.54656027  0.61454711  0.34063427    -0.25500
C737        C  0.51598424  0.61494238  0.34701132     0.36600
C738        C  0.50474318  0.62912999  0.36547192    -0.19500
C739        C  0.52416913  0.64330259  0.37525302    -0.24700
C740        C  0.55470134  0.64253773  0.36968913     0.27900
H741        H  0.55534079  0.60329722  0.32736463     0.13700
N742        N  0.49669759  0.60070543  0.33535216    -0.82000
H743        H  0.51583711  0.65449009  0.38888852     0.18600
N744        N  0.57416303  0.65632767  0.38235028    -0.80600
H745        H  0.50808418  0.59229890  0.32064932     0.34200
H746        H  0.49067996  0.59159034  0.35188829     0.38700
H747        H  0.56212477  0.66655156  0.39360084     0.34100
H748        H  0.58733904  0.64923854  0.39720833     0.30800
H749        H  0.60407720  0.57979060  0.37814220     0.34200
H750        H  0.57692599  0.59517593  0.38593885     0.30800
H751        H  0.68385299  0.65004935  0.33441753     0.38700
H752        H  0.65548598  0.66522873  0.33790310     0.34200
C753        C  0.46302812  0.41139170  0.53097857    -0.19600
C754        C  0.47423224  0.42377800  0.55205663     0.36700
C755        C  0.50501167  0.42469977  0.55663375    -0.25500
C756        C  0.52452599  0.41353798  0.54060655     0.03100
C757        C  0.51334922  0.40064409  0.52047397     0.27900
C758        C  0.48271667  0.39943519  0.51627769    -0.24700
N759        N  0.45456530  0.43571949  0.56812363    -0.82000
H760        H  0.51393345  0.43460276  0.57201483     0.13700
C761        C  0.55673693  0.41680620  0.54250722     0.03100
N762        N  0.53327907  0.38943220  0.50349513    -0.80600
H763        H  0.47440409  0.38989835  0.50009354     0.18500
C764        C  0.57449708  0.40405847  0.55771061    -0.25500
C765        C  0.60557750  0.40482702  0.55570434     0.36600
C766        C  0.61885620  0.41828478  0.53736548    -0.19500
C767        C  0.60090583  0.43193066  0.52395823    -0.24700
C768        C  0.56995747  0.43128611  0.52628721     0.27900
H769        H  0.56401587  0.39305808  0.57028965     0.13700
N770        N  0.62343819  0.39134922  0.57094392    -0.82000
H771        H  0.61095669  0.44255535  0.51038054     0.18600
N772        N  0.55180791  0.44474473  0.51125941    -0.80600
H773        H  0.61008454  0.38196064  0.58244029     0.34200
H774        H  0.63572062  0.39896444  0.58591003     0.38700
H775        H  0.56498905  0.45463883  0.50055563     0.34100
H776        H  0.54004640  0.43731660  0.49571317     0.30800
H777        H  0.52147550  0.38056275  0.48976049     0.34200
H778        H  0.54537004  0.39874527  0.49065704     0.30800
H779        H  0.44117045  0.42683171  0.58043321     0.38700
H780        H  0.46648375  0.44420477  0.58229970     0.34200
C781        C  0.36645829  0.47550764  0.47163995    -0.19600
C782        C  0.34928057  0.48278858  0.44901713     0.36700
C783        C  0.35119887  0.50225076  0.44212830    -0.25500
C784        C  0.37030614  0.51450109  0.45693584     0.03100
C785        C  0.38719745  0.50725614  0.47965134     0.27900
C786        C  0.38471693  0.48800803  0.48698776    -0.24700
N787        N  0.33032968  0.47046759  0.43286030    -0.82000
H788        H  0.33806899  0.50786532  0.42481610     0.13700
C789        C  0.37410576  0.53455640  0.44747641     0.03100
N790        N  0.40760936  0.51932916  0.49461325    -0.80600
H791        H  0.39812208  0.48261211  0.50425323     0.18500
C792        C  0.37148838  0.54940156  0.46727060    -0.25500
C793        C  0.37924943  0.56818289  0.46016154     0.36600
C794        C  0.38854064  0.57233492  0.43215738    -0.19500
C795        C  0.38923192  0.55765548  0.41197441    -0.24700
C796        C  0.38279308  0.53879811  0.41943225     0.27900
H797        H  0.36439800  0.54616322  0.48869800     0.13700
N798        N  0.37755029  0.58291404  0.48125135    -0.82000
H799        H  0.39616460  0.56074159  0.39045414     0.18600
N800        N  0.38618822  0.52385040  0.39887652    -0.80600
H801        H  0.36826633  0.57766390  0.50000852     0.34200
H802        H  0.39923492  0.58682237  0.48635066     0.38700
H803        H  0.39254709  0.52937677  0.37920511     0.34100
H804        H  0.40353846  0.51511663  0.40566799     0.30800
H805        H  0.41825705  0.51183608  0.51082291     0.34200
H806        H  0.42408292  0.52346386  0.48028577     0.30800
H807        H  0.31342032  0.46583608  0.44635222     0.38700
H808        H  0.32005750  0.47797055  0.41643576     0.34200
C809        C  0.33942470  0.65328109  0.35986608    -0.19600
C810        C  0.31025201  0.65211158  0.37088511     0.36700
C811        C  0.28782227  0.66339677  0.35897121    -0.25500
C812        C  0.29390970  0.67583699  0.33656339     0.03100
C813        C  0.32259241  0.67666778  0.32499025     0.27900
C814        C  0.34502833  0.66525333  0.33659220    -0.24700
N815        N  0.30354628  0.63987035  0.39445798    -0.82000
H816        H  0.26562142  0.66293679  0.36772161     0.13700
C817        C  0.27039486  0.68888396  0.32693047     0.03100
N818        N  0.32890386  0.68945189  0.30198336    -0.80600
H819        H  0.36725870  0.66628974  0.32806877     0.18500
C820        C  0.27249170  0.70814560  0.33398984    -0.25500
C821        C  0.24972252  0.72091349  0.32709738     0.36600
C822        C  0.22397753  0.71406393  0.31324652    -0.19500
C823        C  0.22227546  0.69473565  0.30583676    -0.24700
C824        C  0.24540037  0.68211064  0.31232530     0.27900
H825        H  0.29189766  0.71316434  0.34524879     0.13700
N826        N  0.25247165  0.74061265  0.33483973    -0.82000
H827        H  0.20292167  0.68946260  0.29478405     0.18600
N828        N  0.24364871  0.66243585  0.30428232    -0.80600
H829        H  0.27153068  0.74281573  0.34699059     0.34200
H830        H  0.25562496  0.74833756  0.31613673     0.38700
H831        H  0.22376136  0.65970791  0.29369134     0.34100
H832        H  0.26067283  0.65982307  0.28973850     0.30800
H833        H  0.35120239  0.68853290  0.29612501     0.34200
H834        H  0.31655964  0.68497906  0.28446036     0.30800
H835        H  0.30635759  0.62585320  0.38758739     0.38700
H836        H  0.28132324  0.64121088  0.40041338     0.34200
C837        C  0.18903003  0.34015872  0.61371435    -0.19600
C838        C  0.18152786  0.35700052  0.59901639     0.36700
C839        C  0.20423470  0.36834671  0.58766116    -0.25500
C840        C  0.23403857  0.36280731  0.58965396     0.03100
C841        C  0.24148744  0.34593704  0.60406537     0.27900
C842        C  0.21899375  0.33505213  0.61646592    -0.24700
N843        N  0.15106732  0.36238499  0.59521529    -0.82000
H844        H  0.19866665  0.38134350  0.57652710     0.13700
C845        C  0.25704285  0.37388972  0.57457471     0.03100
N846        N  0.27174369  0.33954850  0.60511303    -0.80600
H847        H  0.22490961  0.32202019  0.62732741     0.18500
C848        C  0.28195594  0.38045759  0.58942259    -0.25500
C849        C  0.30527096  0.38964324  0.57521695     0.36600
C850        C  0.30320025  0.39262993  0.54563709    -0.19500
C851        C  0.27791317  0.38645093  0.53102202    -0.24700
C852        C  0.25502942  0.37686917  0.54507790     0.27900
H853        H  0.28333814  0.37815821  0.61211378     0.13700
N854        N  0.33094132  0.39584679  0.59068731    -0.82000
H855        H  0.27646304  0.38847064  0.50827931     0.18600
N856        N  0.23014704  0.36965612  0.52938001    -0.80600
H857        H  0.32910427  0.39224705  0.61213647     0.34200
H858        H  0.33149249  0.41069230  0.58973925     0.38700
H859        H  0.23203716  0.37306509  0.50786938     0.34100
H860        H  0.23069497  0.35482156  0.53071678     0.30800
H861        H  0.27343884  0.32683672  0.61649433     0.34200
H862        H  0.27837655  0.33650025  0.58434656     0.30800
H863        H  0.14241655  0.36564632  0.61520758     0.38700
H864        H  0.14948645  0.37478645  0.58307655     0.34200
C865        C  0.20188313  0.87984395  0.43158676    -0.19600
C866        C  0.17246460  0.87666235  0.42227386     0.36700
C867        C  0.16625086  0.86075376  0.40528479    -0.25500
C868        C  0.18881533  0.84825888  0.39714273     0.03100
C869        C  0.21814664  0.85155672  0.40579220     0.27900
C870        C  0.22443701  0.86734727  0.42289511    -0.24700
N871        N  0.14903905  0.88951972  0.43000837    -0.82000
H872        H  0.14380584  0.85812873  0.39815383     0.13700
C873        C  0.18174516  0.83191466  0.37888764     0.03100
N874        N  0.24133432  0.83875125  0.39724081    -0.80600
H875        H  0.24696367  0.86960879  0.43003265     0.18500
C876        C  0.18856999  0.83299499  0.35002326    -0.25500
C877        C  0.18392145  0.81742251  0.33201204     0.36600
C878        C  0.17135772  0.80053982  0.34315076    -0.19500
C879        C  0.16454794  0.79959772  0.37226556    -0.24700
C880        C  0.16986922  0.81510100  0.39029946     0.27900
H881        H  0.19813333  0.84597305  0.34167372     0.13700
N882        N  0.19225591  0.81872752  0.30263433    -0.82000
H883        H  0.15513898  0.78671715  0.38106091     0.18600
N884        N  0.16343199  0.81385884  0.42011912    -0.80600
H885        H  0.19998941  0.83235974  0.29781255     0.34200
H886        H  0.21015303  0.80951842  0.29949545     0.38700
H887        H  0.15467525  0.80051372  0.42511294     0.34100
H888        H  0.18349495  0.81497396  0.43105672     0.30800
H889        H  0.26176049  0.84324108  0.40523196     0.34200
H890        H  0.23696747  0.82552559  0.40645813     0.30800
H891        H  0.15353382  0.90258370  0.42034105     0.38700
H892        H  0.12876236  0.88488895  0.42183987     0.34200
C893        C  0.15599636  0.25211113  0.59572713    -0.19600
C894        C  0.17506375  0.25573111  0.57258185     0.36700
C895        C  0.18459028  0.24057202  0.55566592    -0.25500
C896        C  0.17558393  0.22197421  0.56150157     0.03100
C897        C  0.15708496  0.21817911  0.58486664     0.27900
C898        C  0.14764259  0.23334351  0.60203621    -0.24700
N899        N  0.18486354  0.27474726  0.56646139    -0.82000
H900        H  0.19889205  0.24323909  0.53761912     0.13700
C901        C  0.18422406  0.20688209  0.54159350     0.03100
N902        N  0.14762419  0.19905435  0.59066048    -0.80600
H903        H  0.13308691  0.23059375  0.61985733     0.18500
C904        C  0.20665536  0.19409923  0.54902071    -0.25500
C905        C  0.21620868  0.18008767  0.52982740     0.36600
C906        C  0.20254295  0.17881353  0.50283242    -0.19500
C907        C  0.17998517  0.19175617  0.49571459    -0.24700
C908        C  0.17095223  0.20589970  0.51470337     0.27900
H909        H  0.21698905  0.19527589  0.56968877     0.13700
N910        N  0.24010857  0.16758934  0.53747991    -0.82000
H911        H  0.16952432  0.19103911  0.47507184     0.18600
N912        N  0.14874116  0.21954345  0.50667640    -0.80600
H913        H  0.24892186  0.17138300  0.55718717     0.34200
H914        H  0.23120225  0.15398081  0.54001369     0.38700
H915        H  0.14152583  0.21708100  0.48593234     0.34100
H916        H  0.13040038  0.21752249  0.51988724     0.30800
H917        H  0.13406390  0.19870669  0.60864393     0.34200
H918        H  0.13454854  0.19458996  0.57362048     0.30800
H919        H  0.19794488  0.27925211  0.58347431     0.38700
H920        H  0.19849651  0.27492352  0.54852158     0.34200
C921        C  0.24560601  0.98106517  0.48054849    -0.19600
C922        C  0.23763236  0.99081018  0.45539166     0.36700
C923        C  0.24201806  0.01054628  0.45372415    -0.25500
C924        C  0.25490330  0.02062454  0.47618455     0.03100
C925        C  0.26466823  0.01085026  0.50040739     0.27900
C926        C  0.25965608  0.99121221  0.50249978    -0.24700
N927        N  0.22465885  0.98083668  0.43186848    -0.82000
H928        H  0.23484192  0.01821960  0.43500719     0.13700
C929        C  0.25620701  0.04156548  0.47447967     0.03100
N930        N  0.27942362  0.02096281  0.52280174    -0.80600
H931        H  0.26646720  0.98386366  0.52160339     0.18500
C932        C  0.23862011  0.05240566  0.49293491    -0.25500
C933        C  0.23523461  0.07207514  0.48889814     0.36600
C934        C  0.24930937  0.08081049  0.46549520    -0.19500
C935        C  0.26848015  0.07010344  0.44831367    -0.24700
C936        C  0.27235533  0.05058372  0.45281919     0.27900
H937        H  0.22650265  0.04533604  0.50975102     0.13700
N938        N  0.21621335  0.08285485  0.50735917    -0.82000
H939        H  0.27994801  0.07691288  0.43085353     0.18600
N940        N  0.29201033  0.03973710  0.43509798    -0.80600
H941        H  0.20627934  0.07398838  0.52241073     0.34200
H942        H  0.22961668  0.09225852  0.51874485     0.38700
H943        H  0.30216304  0.04850825  0.42005633     0.34100
H944        H  0.30892048  0.03445561  0.44803778     0.30800
H945        H  0.28524060  0.01168228  0.53920469     0.34200
H946        H  0.29924122  0.02629734  0.51451911     0.30800
H947        H  0.24090099  0.97178708  0.42361419     0.38700
H948        H  0.21917960  0.99028125  0.41556064     0.34200
C949        C  0.45500095  0.74790431  0.56469604    -0.19600
C950        C  0.43384554  0.73415372  0.57307326     0.36700
C951        C  0.42782491  0.71869388  0.55497740    -0.25500
C952        C  0.44234807  0.71685790  0.52881124     0.03100
C953        C  0.46345372  0.73048900  0.52053850     0.27900
C954        C  0.46936356  0.74589725  0.53841816    -0.24700
N955        N  0.41829831  0.73601275  0.59954662    -0.82000
H956        H  0.41143732  0.70819576  0.56102834     0.13700
C957        C  0.43483763  0.70097999  0.50958625     0.03100
N958        N  0.47896608  0.72852079  0.49403443    -0.80600
H959        H  0.48575477  0.75626206  0.53190557     0.18500
C960        C  0.42231526  0.70522596  0.48321956    -0.25500
C961        C  0.41697612  0.69094613  0.46326683     0.36600
C962        C  0.42404246  0.67183539  0.46976923    -0.19500
C963        C  0.43600066  0.66754349  0.49656739    -0.24700
C964        C  0.44162202  0.68199171  0.51651947     0.27900
H965        H  0.41717689  0.71985011  0.47786226     0.13700
N966        N  0.40502317  0.69610238  0.43618606    -0.82000
H967        H  0.44154043  0.65296841  0.50176379     0.18600
N968        N  0.45481118  0.67757309  0.54346588    -0.80600
H969        H  0.38471628  0.70290673  0.43949860     0.34200
H970        H  0.41945257  0.70582170  0.42666109     0.38700
H971        H  0.45841052  0.66293961  0.54528680     0.34100
H972        H  0.47565849  0.68402603  0.54406869     0.30800
H973        H  0.49367141  0.73981794  0.49099902     0.34200
H974        H  0.49183542  0.71618412  0.49526208     0.30800
H975        H  0.40504220  0.74817291  0.59820510     0.38700
H976        H  0.40390541  0.72454702  0.60257928     0.34200
C977        C  0.29798115  0.89454540  0.53890335    -0.19600
C978        C  0.29445848  0.87998534  0.55929668     0.36700
C979        C  0.31964794  0.87075071  0.57006547    -0.25500
C980        C  0.34829834  0.87584342  0.56123261     0.03100
C981        C  0.35181383  0.89084412  0.54162330     0.27900
C982        C  0.32665587  0.89982426  0.53043336    -0.24700
N983        N  0.26543087  0.87414873  0.56835018    -0.82000
H984        H  0.31679262  0.85895950  0.58458592     0.13700
C985        C  0.37404485  0.86431887  0.57090409     0.03100
N986        N  0.38091521  0.89684626  0.53302932    -0.80600
H987        H  0.32951921  0.91109805  0.51501581     0.18500
C988        C  0.39391186  0.85709711  0.55058305    -0.25500
C989        C  0.41716429  0.84490875  0.55831452     0.36600
C990        C  0.42014479  0.83945128  0.58693998    -0.19500
C991        C  0.40062316  0.84683167  0.60731900    -0.24700
C992        C  0.37788130  0.85940884  0.59972560     0.27900
H993        H  0.39063704  0.86041136  0.52837062     0.13700
N994        N  0.43693562  0.83753265  0.53706044    -0.82000
H995        H  0.40315385  0.84276369  0.62936058     0.18600
N996        N  0.35859069  0.86708510  0.62114395    -0.80600
H997        H  0.43196120  0.84325775  0.51715410     0.34200
H998        H  0.43324130  0.82289474  0.53557223     0.38700
H999        H  0.36421474  0.86184994  0.64119101     0.34100
H1000       H  0.36199080  0.88177784  0.62174987     0.30800
H1001       H  0.37963959  0.90788250  0.51822372     0.34200
H1002       H  0.39154042  0.90236193  0.55091965     0.30800
H1003       H  0.25500672  0.86777650  0.55098833     0.38700
H1004       H  0.26686998  0.86371548  0.58409058     0.34200
C1005       C  0.45822266  0.30156784  0.34219285    -0.19600
C1006       C  0.44983249  0.31900193  0.32954496     0.36700
C1007       C  0.43908493  0.33378990  0.34674615    -0.25500
C1008       C  0.43636051  0.33147638  0.37613914     0.03100
C1009       C  0.44512334  0.31425317  0.38886045     0.27900
C1010       C  0.45603695  0.29949173  0.37177050    -0.24700
N1011       N  0.45203907  0.32164336  0.29937302    -0.82000
H1012       H  0.43226049  0.34709554  0.33717258     0.13700
C1013       C  0.42300632  0.34692578  0.39318198     0.03100
N1014       N  0.44264192  0.31180141  0.41904689    -0.80600
H1015       H  0.46234297  0.28616701  0.38159452     0.18500
C1016       C  0.39563846  0.34379562  0.40638926    -0.25500
C1017       C  0.38221825  0.35795640  0.42305004     0.36600
C1018       C  0.39661772  0.37567988  0.42654452    -0.19500
C1019       C  0.42361164  0.37892425  0.41241679    -0.24700
C1020       C  0.43713615  0.36464507  0.39609285     0.27900
H1021       H  0.38478697  0.33017130  0.40373680     0.13700
N1022       N  0.35429352  0.35425987  0.43664087    -0.82000
H1023       H  0.43498349  0.39235198  0.41518441     0.18600
N1024       N  0.46555461  0.36784443  0.38316366    -0.80600
H1025       H  0.34715723  0.34040909  0.43239285     0.34200
H1026       H  0.33863045  0.36337940  0.42760269     0.38700
H1027       H  0.47297583  0.38163941  0.38735008     0.34100
H1028       H  0.48068321  0.35860726  0.39276549     0.30800
H1029       H  0.44968705  0.29821841  0.42502543     0.34200
H1030       H  0.45712623  0.32145022  0.42862516     0.30800
H1031       H  0.47451711  0.32127647  0.29404279     0.38700
H1032       H  0.44429337  0.33509920  0.29354757     0.34200
C1033       C  0.42089791  0.21306836  0.32806328    -0.19600
C1034       C  0.42838298  0.19580672  0.34168308     0.36700
C1035       C  0.40589982  0.18472382  0.35401595    -0.25500
C1036       C  0.37628375  0.19051674  0.35286778     0.03100
C1037       C  0.36860800  0.20754158  0.33907749     0.27900
C1038       C  0.39098122  0.21864839  0.32674871    -0.24700
N1039       N  0.45866944  0.18958017  0.34300668    -0.82000
H1040       H  0.41147325  0.17164314  0.36492701     0.13700
C1041       C  0.35367203  0.17954282  0.36830740     0.03100
N1042       N  0.33820253  0.21364475  0.33829739    -0.80600
H1043       H  0.38504707  0.23191106  0.31653432     0.18500
C1044       C  0.34583103  0.18552806  0.39554442    -0.25500
C1045       C  0.32319132  0.17644514  0.41068487     0.36600
C1046       C  0.30748322  0.16131165  0.39779520    -0.19500
C1047       C  0.31622567  0.15490650  0.37076855    -0.24700
C1048       C  0.33935457  0.16385497  0.35592654     0.27900
H1049       H  0.35734205  0.19750197  0.40490296     0.13700
N1050       N  0.31566024  0.18297415  0.43868530    -0.82000
H1051       H  0.30466847  0.14311725  0.36098027     0.18600
N1052       N  0.34818117  0.15724704  0.32832939    -0.80600
H1053       H  0.32807788  0.19498083  0.44408913     0.34200
H1054       H  0.32192897  0.17232624  0.45294794     0.38700
H1055       H  0.33565281  0.14540174  0.32239707     0.34100
H1056       H  0.34332710  0.16798813  0.31372626     0.30800
H1057       H  0.33630841  0.22666172  0.32774391     0.34200
H1058       H  0.32635935  0.20372152  0.32631878     0.30800
H1059       H  0.46550552  0.18662511  0.32227381     0.38700
H1060       H  0.46035957  0.17682602  0.35428296     0.34200
C1061       C  0.17310372  0.80166681  0.08768602    -0.19600
C1062       C  0.18099147  0.81935296  0.09994140     0.36700
C1063       C  0.18976553  0.83440596  0.08224264    -0.25500
C1064       C  0.18967100  0.83238681  0.05270245     0.03100
C1065       C  0.17996461  0.81523726  0.04041603     0.27900
C1066       C  0.17223133  0.79997717  0.05800594    -0.24700
N1067       N  0.18001794  0.82206131  0.13015453    -0.82000
H1068       H  0.19681398  0.84776374  0.09147933     0.13700
C1069       C  0.20027747  0.84812294  0.03459513     0.03100
N1070       N  0.17800106  0.81344226  0.01008154    -0.80600
H1071       H  0.16557356  0.78666468  0.04838861     0.18500
C1072       C  0.22431147  0.84478693  0.01645819    -0.25500
C1073       C  0.23323981  0.85846839  0.99663198     0.36600
C1074       C  0.21761075  0.87584669  0.99488801    -0.19500
C1075       C  0.19492606  0.87970056  0.01449699    -0.24700
C1076       C  0.18591307  0.86590823  0.03424601     0.27900
H1077       H  0.23568522  0.83122500  0.01737485     0.13700
N1078       N  0.25774196  0.85462135  0.97797405    -0.82000
H1079       H  0.18306558  0.89307337  0.01337336     0.18600
N1080       N  0.16155411  0.86959261  0.05313243    -0.80600
H1081       H  0.26646034  0.84108664  0.98179325     0.34200
H1082       H  0.27451133  0.86433988  0.98280439     0.38700
H1083       H  0.15346118  0.88338191  0.05019605     0.34100
H1084       H  0.14436710  0.86033145  0.04768970     0.30800
H1085       H  0.17051412  0.79989837  0.00443832     0.34200
H1086       H  0.16195289  0.82307281  0.00305089     0.30800
H1087       H  0.15781224  0.82122034  0.13635884     0.38700
H1088       H  0.18715628  0.83572805  0.13555854     0.34200
C1089       C  0.20932606  0.17380050  0.93702279    -0.19600
C1090       C  0.19293386  0.17068852  0.91183157     0.36700
C1091       C  0.18677750  0.18611875  0.89379098    -0.25500
C1092       C  0.19716903  0.20437937  0.90005136     0.03100
C1093       C  0.21491461  0.20734534  0.92412827     0.27900
C1094       C  0.22057233  0.19208456  0.94255104    -0.24700
N1095       N  0.18162886  0.15213190  0.90511093    -0.82000
H1096       H  0.17322884  0.18402215  0.87508423     0.13700
C1097       C  0.18717071  0.22058799  0.88260594     0.03100
N1098       N  0.22661667  0.22594222  0.92995318    -0.80600
H1099       H  0.23359906  0.19454764  0.96148770     0.18500
C1100       C  0.16479931  0.23233208  0.89330646    -0.25500
C1101       C  0.15413815  0.24785116  0.87763547     0.36600
C1102       C  0.16586721  0.25148403  0.85025940    -0.19500
C1103       C  0.18844924  0.23960181  0.83967990    -0.24700
C1104       C  0.19938047  0.22427310  0.85572603     0.27900
H1105       H  0.15567786  0.22935579  0.91411484     0.13700
N1106       N  0.13129104  0.25971000  0.88944806    -0.82000
H1107       H  0.19777212  0.24233008  0.81889551     0.18600
N1108       N  0.22278362  0.21244343  0.84492689    -0.80600
H1109       H  0.12381751  0.25422834  0.90878814     0.34200
H1110       H  0.14088163  0.27286369  0.89413580     0.38700
H1111       H  0.22930879  0.21701916  0.82476761     0.34100
H1112       H  0.24112344  0.21418609  0.85820476     0.30800
H1113       H  0.23916921  0.22578459  0.94858004     0.34200
H1114       H  0.24117953  0.22940092  0.91348497     0.30800
H1115       H  0.19977111  0.14350572  0.90014506     0.38700
H1116       H  0.16856635  0.15262452  0.88681889     0.34200
C1117       C  0.24317846  0.97275265  0.94145788    -0.19600
C1118       C  0.23032438  0.98696598  0.92415506     0.36700
C1119       C  0.23336596  0.00615198  0.93173092    -0.25500
C1120       C  0.24893220  0.01157160  0.95614273     0.03100
C1121       C  0.26247457  0.99744614  0.97304545     0.27900
C1122       C  0.25930005  0.97818142  0.96561469    -0.24700
N1123       N  0.21331347  0.98192445  0.89949427    -0.82000
H1124       H  0.22245933  0.01694182  0.91908544     0.13700
C1125       C  0.24852342  0.03192625  0.96478965     0.03100
N1126       N  0.27918126  0.00272482  0.99776910    -0.80600
H1127       H  0.26940413  0.96735604  0.97879472     0.18500
C1128       C  0.23799245  0.03669337  0.99183711    -0.25500
C1129       C  0.23463402  0.05572247  0.00023682     0.36600
C1130       C  0.24094207  0.07048992  0.98069741    -0.19500
C1131       C  0.25205277  0.06568108  0.95373180    -0.24700
C1132       C  0.25625743  0.04658427  0.94572249     0.27900
H1133       H  0.23171864  0.02545165  0.00635475     0.13700
N1134       N  0.22408200  0.05996055  0.02831952    -0.82000
H1135       H  0.25733361  0.07685085  0.93874163     0.18600
N1136       N  0.26810174  0.04199171  0.91823833    -0.80600
H1137       H  0.21882549  0.04748580  0.03927801     0.34200
H1138       H  0.24161229  0.06618971  0.03941751     0.38700
H1139       H  0.27255853  0.05436280  0.90671188     0.34100
H1140       H  0.28840837  0.03515313  0.92136104     0.30800
H1141       H  0.28757825  0.99066589  0.00794443     0.34200
H1142       H  0.29743529  0.01063969  0.99093667     0.30800
H1143       H  0.19421920  0.97493990  0.90649812     0.38700
H1144       H  0.20613953  0.99408430  0.88874463     0.34200
C1145       C  0.44973084  0.75594120  0.82131524    -0.19600
C1146       C  0.43868384  0.73862937  0.81027750     0.36700
C1147       C  0.43011945  0.72408349  0.82906357    -0.25500
C1148       C  0.43295292  0.72632487  0.85848241     0.03100
C1149       C  0.44409426  0.74349791  0.86950998     0.27900
C1150       C  0.45232155  0.75811262  0.85084927    -0.24700
N1151       N  0.43685757  0.73564606  0.78015924    -0.82000
H1152       H  0.42189459  0.71073006  0.82075552     0.13700
C1153       C  0.42521320  0.71034854  0.87759954     0.03100
N1154       N  0.44700542  0.74598780  0.89965344    -0.80600
H1155       H  0.46076846  0.77130832  0.85949396     0.18500
C1156       C  0.44765404  0.70188989  0.89378182    -0.25500
C1157       C  0.44128458  0.68710795  0.91281356     0.36600
C1158       C  0.41176386  0.68079425  0.91591059    -0.19500
C1159       C  0.38941272  0.68883343  0.89907192    -0.24700
C1160       C  0.39583841  0.70372087  0.88005742     0.27900
H1161       H  0.47025030  0.70685286  0.89146101     0.13700
N1162       N  0.46473294  0.67828590  0.92873813    -0.82000
H1163       H  0.36681542  0.68388986  0.90140617     0.18600
N1164       N  0.37266164  0.71239018  0.86364662    -0.80600
H1165       H  0.48511356  0.68459371  0.92401074     0.34200
H1166       H  0.46623107  0.66412668  0.92212446     0.38700
H1167       H  0.35232666  0.70588141  0.86791594     0.34100
H1168       H  0.37072492  0.72652211  0.87027554     0.30800
H1169       H  0.45577670  0.75937876  0.90432605     0.34200
H1170       H  0.42572674  0.74563850  0.90840853     0.30800
H1171       H  0.45849574  0.73546415  0.77223008     0.38700
H1172       H  0.42783240  0.72229292  0.77568988     0.34200
C1173       C  0.41763502  0.84523536  0.79754439    -0.19600
C1174       C  0.38712367  0.84310868  0.79115796     0.36700
C1175       C  0.36616241  0.85422696  0.80556039    -0.25500
C1176       C  0.37482695  0.86803953  0.82523795     0.03100
C1177       C  0.40521894  0.87118235  0.83019873     0.27900
C1178       C  0.42632961  0.85956780  0.81662370    -0.24700
N1179       N  0.37731221  0.82943506  0.77053003    -0.82000
H1180       H  0.34277582  0.85189364  0.80174541     0.13700
C1181       C  0.35156518  0.87821190  0.84154765     0.03100
N1182       N  0.41442235  0.88606280  0.84913123    -0.80600
H1183       H  0.44960990  0.86154735  0.82130758     0.18500
C1184       C  0.35127934  0.87665550  0.87118738    -0.25500
C1185       C  0.32784483  0.88413515  0.88731316     0.36600
C1186       C  0.30409808  0.89338951  0.87339997    -0.19500
C1187       C  0.30482004  0.89536829  0.84376855    -0.24700
C1188       C  0.32845288  0.88801586  0.82772395     0.27900
H1189       H  0.36889859  0.86891942  0.88169752     0.13700
N1190       N  0.32768470  0.88177240  0.91762225    -0.82000
H1191       H  0.28687278  0.90266985  0.83308709     0.18600
N1192       N  0.32904463  0.89032330  0.79743010    -0.80600
H1193       H  0.34704599  0.87501729  0.92444880     0.34200
H1194       H  0.31017072  0.87266564  0.92271865     0.38700
H1195       H  0.31044072  0.89787361  0.79053302     0.34100
H1196       H  0.34752131  0.89862979  0.79242266     0.30800
H1197       H  0.43752522  0.88657363  0.85043313     0.34200
H1198       H  0.40763212  0.89898474  0.84029723     0.30800
H1199       H  0.38482929  0.83403363  0.75069764     0.38700
H1200       H  0.35419095  0.82918840  0.76930467     0.34200
C1201       C  0.41385279  0.38111840  0.00831154    -0.19600
C1202       C  0.39236732  0.37527914  0.02841757     0.36700
C1203       C  0.39911642  0.36039681  0.04737997    -0.25500
C1204       C  0.42703799  0.35166507  0.04713942     0.03100
C1205       C  0.44922515  0.35857381  0.02887611     0.27900
C1206       C  0.44234495  0.37302761  0.00945480    -0.24700
N1207       N  0.36365029  0.38409062  0.02914177    -0.82000
H1208       H  0.38230154  0.35519654  0.06183935     0.13700
C1209       C  0.43225377  0.33427044  0.06419258     0.03100
N1210       N  0.47853366  0.35058489  0.02984649    -0.80600
H1211       H  0.45923246  0.37763387  0.99463991     0.18500
C1212       C  0.43693140  0.31708692  0.04987404    -0.25500
C1213       C  0.44299054  0.30028489  0.06470046     0.36600
C1214       C  0.44483403  0.30055171  0.09460689    -0.19500
C1215       C  0.43925699  0.31772785  0.10902803    -0.24700
C1216       C  0.43302903  0.33462366  0.09405904     0.27900
H1217       H  0.43589908  0.31672689  0.02690485     0.13700
N1218       N  0.44701437  0.28296774  0.04917519    -0.82000
H1219       H  0.44044616  0.31809617  0.13197075     0.18600
N1220       N  0.42802143  0.35216451  0.10894322    -0.80600
H1221       H  0.42781032  0.28043717  0.03738476     0.34200
H1222       H  0.46456706  0.28488675  0.03498072     0.38700
H1223       H  0.42926518  0.35000497  0.13085418     0.34100
H1224       H  0.44522184  0.36145729  0.10364091     0.30800
H1225       H  0.49229618  0.35715989  0.01494089     0.34200
H1226       H  0.48739946  0.35367188  0.04980616     0.30800
H1227       H  0.35037704  0.37782893  0.04474161     0.38700
H1228       H  0.36666632  0.39824056  0.03528124     0.34200
C1229       C  0.29817541  0.15355913  0.04490951    -0.19600
C1230       C  0.31790227  0.16574349  0.03025367     0.36700
C1231       C  0.34095431  0.17460027  0.04522850    -0.25500
C1232       C  0.34519378  0.17116718  0.07422128     0.03100
C1233       C  0.32658100  0.15828132  0.08850387     0.27900
C1234       C  0.30287339  0.14988223  0.07384332    -0.24700
N1235       N  0.31374357  0.16980840  0.00062250    -0.82000
H1236       H  0.35535811  0.18456245  0.03439252     0.13700
C1237       C  0.36791361  0.18224276  0.08964697     0.03100
N1238       N  0.33189543  0.15383446  0.11781959    -0.80600
H1239       H  0.28810393  0.14031373  0.08499550     0.18500
C1240       C  0.35891800  0.19456925  0.11138563    -0.25500
C1241       C  0.37916256  0.20688520  0.12456532     0.36600
C1242       C  0.40896000  0.20713534  0.11517395    -0.19500
C1243       C  0.41807642  0.19407002  0.09433897    -0.24700
C1244       C  0.39791609  0.18155856  0.08162424     0.27900
H1245       H  0.33579234  0.19491835  0.11755420     0.13700
N1246       N  0.36925479  0.21944587  0.14669029    -0.82000
H1247       H  0.44097884  0.19382830  0.08747187     0.18600
N1248       N  0.40765594  0.16834096  0.06030724    -0.80600
H1249       H  0.34646034  0.21799670  0.15000198     0.34200
H1250       H  0.37945824  0.21508541  0.16550149     0.38700
H1251       H  0.43041467  0.16971398  0.05672325     0.34100
H1252       H  0.40430525  0.15463989  0.06828395     0.30800
H1253       H  0.31625808  0.14405698  0.12521321     0.34200
H1254       H  0.35252413  0.14711523  0.11904515     0.30800
H1255       H  0.31908249  0.15747947  0.98934421     0.38700
H1256       H  0.32871856  0.18018283  0.99379390     0.34200
C1257       C  0.99051921  0.14170742  0.38989607    -0.19600
C1258       C  0.00886058  0.15633796  0.40026836     0.36700
C1259       C  0.03927966  0.15588701  0.39469848    -0.25500
C1260       C  0.05177605  0.14120205  0.37850282     0.03100
C1261       C  0.03307665  0.12756331  0.36580592     0.27900
C1262       C  0.00253689  0.12789119  0.37174379    -0.24700
N1263       N  0.99673445  0.17153841  0.41686504    -0.82000
H1264       H  0.05338231  0.16649333  0.40445082     0.13700
C1265       C  0.08438950  0.13869033  0.37910341     0.03100
N1266       N  0.04539579  0.11310272  0.34776951    -0.80600
H1267       H  0.98838192  0.11682158  0.36330813     0.18500
C1268       C  0.09574957  0.12157123  0.38978882    -0.25500
C1269       C  0.12577812  0.11973824  0.39671270     0.36600
C1270       C  0.14471673  0.13555961  0.39360325    -0.19500
C1271       C  0.13395661  0.15214060  0.38054228    -0.24700
C1272       C  0.10389093  0.15384216  0.37317535     0.27900
H1273       H  0.08081371  0.10990069  0.39428279     0.13700
N1274       N  0.13687092  0.10207395  0.40780412    -0.82000
H1275       H  0.14857552  0.16419150  0.37760836     0.18600
N1276       N  0.09280672  0.17110287  0.36077414    -0.80600
H1277       H  0.11996548  0.09195432  0.40905463     0.34200
H1278       H  0.15236672  0.09682629  0.39327994     0.38700
H1279       H  0.10995940  0.18090453  0.35794941     0.34100
H1280       H  0.08485781  0.16776465  0.34055707     0.30800
H1281       H  0.02873938  0.10410153  0.34025065     0.34200
H1282       H  0.05445314  0.11989807  0.33005004     0.30800
H1283       H  0.00740873  0.17165236  0.43653680     0.38700
H1284       H  0.00153169  0.18433791  0.40656550     0.34200
C1285       C  0.91048266  0.17736656  0.49060602    -0.19600
C1286       C  0.92410246  0.17303881  0.51690158     0.36700
C1287       C  0.92969302  0.18775046  0.53635289    -0.25500
C1288       C  0.92161543  0.20654781  0.53033319     0.03100
C1289       C  0.90736987  0.21084328  0.50457282     0.27900
C1290       C  0.90215093  0.19626426  0.48492814    -0.24700
N1291       N  0.93280044  0.15390378  0.52362891    -0.82000
H1292       H  0.94076285  0.18461105  0.55620036     0.13700
C1293       C  0.92927149  0.22177440  0.55066705     0.03100
N1294       N  0.89838424  0.23003145  0.49846703    -0.80600
H1295       H  0.89161830  0.19976333  0.46496122     0.18500
C1296       C  0.94820753  0.23636028  0.54180436    -0.25500
C1297       C  0.95590167  0.25128036  0.56007562     0.36600
C1298       C  0.94473198  0.25139512  0.58818544    -0.19500
C1299       C  0.92596301  0.23658316  0.59705273    -0.24700
C1300       C  0.91798823  0.22182899  0.57851369     0.27900
H1301       H  0.95693946  0.23610499  0.52038218     0.13700
N1302       N  0.97520995  0.26610641  0.55011151    -0.82000
H1303       H  0.91725708  0.23655738  0.61847292     0.18600
N1304       N  0.89834944  0.20697718  0.58773161    -0.80600
H1305       H  0.98302093  0.26305186  0.52972581     0.34200
H1306       H  0.96248520  0.27846238  0.54818774     0.38700
H1307       H  0.89215433  0.20904068  0.60888525     0.34100
H1308       H  0.87898743  0.20797447  0.57566924     0.30800
H1309       H  0.88837796  0.23084794  0.47851086     0.34200
H1310       H  0.88220764  0.23382173  0.51331556     0.30800
H1311       H  0.91343381  0.14595640  0.52627238     0.38700
H1312       H  0.94385757  0.15343855  0.54309989     0.34200
C1313       C  0.98605560  0.90994727  0.54464035    -0.19600
C1314       C  0.00501058  0.89509361  0.53568548     0.36700
C1315       C  0.03538436  0.89608284  0.54195732    -0.25500
C1316       C  0.04714428  0.91133730  0.55747220     0.03100
C1317       C  0.02764916  0.92494007  0.56921592     0.27900
C1318       C  0.99737084  0.92427330  0.56232635    -0.24700
N1319       N  0.99395273  0.87992925  0.51820421    -0.82000
H1320       H  0.05022291  0.88565681  0.53277371     0.13700
C1321       C  0.07965481  0.91486534  0.55628055     0.03100
N1322       N  0.03901373  0.93993385  0.58684227    -0.80600
H1323       H  0.98278301  0.93544989  0.56977647     0.18500
C1324       C  0.08935027  0.93258258  0.54618478    -0.25500
C1325       C  0.11917654  0.93590232  0.53972472     0.36600
C1326       C  0.13982867  0.92096877  0.54251347    -0.19500
C1327       C  0.13063263  0.90359158  0.55431788    -0.24700
C1328       C  0.10072055  0.90038690  0.56131269     0.27900
H1329       H  0.07331648  0.94367317  0.54188875     0.13700
N1330       N  0.12836280  0.95422252  0.52944628    -0.82000
H1331       H  0.14647710  0.89212310  0.55665577     0.18600
N1332       N  0.09152208  0.88233443  0.57255502    -0.80600
H1333       H  0.11035556  0.96354717  0.52829929     0.34200
H1334       H  0.14296315  0.95993373  0.54438845     0.38700
H1335       H  0.10965357  0.87318447  0.57464166     0.34100
H1336       H  0.08333270  0.88470802  0.59299908     0.30800
H1337       H  0.02191084  0.94892714  0.59347285     0.34200
H1338       H  0.04775854  0.93365060  0.60510576     0.30800
H1339       H  0.97982998  0.87170187  0.53078301     0.38700
H1340       H  0.01115019  0.87091096  0.51187873     0.34200
C1341       C  0.92072182  0.87966819  0.42905604    -0.19600
C1342       C  0.94648131  0.88146307  0.41201384     0.36700
C1343       C  0.95421377  0.86668746  0.39314343    -0.25500
C1344       C  0.93668083  0.85032364  0.39078518     0.03100
C1345       C  0.91024630  0.84898171  0.40644419     0.27900
C1346       C  0.90249320  0.86363395  0.42531489    -0.24700
N1347       N  0.96513446  0.89793611  0.41440944    -0.82000
H1348       H  0.97444784  0.86764775  0.38084537     0.13700
C1349       C  0.94736321  0.83386385  0.37393906     0.03100
N1350       N  0.89192614  0.83236820  0.40380309    -0.80600
H1351       H  0.88255558  0.86214222  0.43791262     0.18500
C1352       C  0.96101446  0.81875525  0.38818575    -0.25500
C1353       C  0.97076905  0.80247397  0.37355990     0.36600
C1354       C  0.96660743  0.80121982  0.34379593    -0.19500
C1355       C  0.95275721  0.81647724  0.32965170    -0.24700
C1356       C  0.94301330  0.83273316  0.34443940     0.27900
H1357       H  0.96404467  0.81971074  0.41094732     0.13700
N1358       N  0.98465516  0.78726289  0.38899385    -0.82000
H1359       H  0.94922151  0.81567576  0.30696131     0.18600
N1360       N  0.92859873  0.84803677  0.32968806    -0.80600
H1361       H  0.98462965  0.79010172  0.41076749     0.34200
H1362       H  0.00689086  0.78682478  0.38281287     0.38700
H1363       H  0.92718480  0.84504143  0.30800708     0.34100
H1364       H  0.90684499  0.84888207  0.33720771     0.30800
H1365       H  0.87342122  0.83339770  0.41706438     0.34200
H1366       H  0.88391074  0.83197511  0.38301233     0.30800
H1367       H  0.95300795  0.90960797  0.40707520     0.38700
H1368       H  0.98355961  0.89670585  0.40107681     0.34200
C1369       C  0.88934559  0.07601448  0.44481991    -0.19600
C1370       C  0.87925318  0.07025422  0.47190543     0.36700
C1371       C  0.87668882  0.05076848  0.47808899    -0.25500
C1372       C  0.88604304  0.03682003  0.45872514     0.03100
C1373       C  0.89702207  0.04258401  0.43198488     0.27900
C1374       C  0.89786842  0.06202967  0.42512211    -0.24700
N1375       N  0.87245391  0.08410402  0.49338130    -0.82000
H1376       H  0.86803176  0.04643215  0.49852182     0.13700
C1377       C  0.88534725  0.01633819  0.46713069     0.03100
N1378       N  0.90799846  0.02872765  0.41215079    -0.80600
H1379       H  0.90597789  0.06628473  0.40444174     0.18500
C1380       C  0.87257273  0.00286087  0.44883595    -0.25500
C1381       C  0.87327854  0.98329995  0.45513502     0.36600
C1382       C  0.88664549  0.97705804  0.48058749    -0.19500
C1383       C  0.89798045  0.99061829  0.49955062    -0.24700
C1384       C  0.89791955  0.01009504  0.49296711     0.27900
H1385       H  0.86214992  0.00763114  0.42940526     0.13700
N1386       N  0.86047948  0.96982980  0.43577357    -0.82000
H1387       H  0.90815125  0.98594418  0.51915782     0.18600
N1388       N  0.91144210  0.02346011  0.51206203    -0.80600
H1389       H  0.85204751  0.97673331  0.41787048     0.34200
H1390       H  0.84242307  0.96352593  0.44599781     0.38700
H1391       H  0.91939731  0.01658898  0.53018999     0.34100
H1392       H  0.92984554  0.02927695  0.50176805     0.30800
H1393       H  0.91521500  0.03528778  0.39348378     0.34200
H1394       H  0.92660783  0.02231565  0.42124848     0.30800
H1395       H  0.89227458  0.09088770  0.49877343     0.38700
H1396       H  0.86494030  0.07747502  0.51188719     0.34200
C1397       C  0.65951389  0.74736617  0.56656066    -0.19600
C1398       C  0.66859252  0.74910311  0.53794918     0.36700
C1399       C  0.67545793  0.73263334  0.52243829    -0.25500
C1400       C  0.67222158  0.71450404  0.53442659     0.03100
C1401       C  0.66155817  0.71270320  0.56236278     0.27900
C1402       C  0.65583423  0.72914684  0.57831378    -0.24700
N1403       N  0.67157862  0.76747906  0.52490172    -0.82000
H1404       H  0.68356196  0.73391693  0.50087790     0.13700
C1405       C  0.68088105  0.69760081  0.51760355     0.03100
N1406       N  0.65646715  0.69418480  0.57431078    -0.80600
H1407       H  0.64814363  0.72770705  0.59998508     0.18500
C1408       C  0.70301357  0.68543437  0.52795541    -0.25500
C1409       C  0.71350095  0.67010156  0.51164396     0.36600
C1410       C  0.70194188  0.66718680  0.48408835    -0.19500
C1411       C  0.67888153  0.67896740  0.47439521    -0.24700
C1412       C  0.66819261  0.69406996  0.49086452     0.27900
H1413       H  0.71256584  0.68817515  0.54863550     0.13700
N1414       N  0.73610200  0.65780653  0.52282169    -0.82000
H1415       H  0.66945292  0.67667042  0.45355452     0.18600
N1416       N  0.64474321  0.70600515  0.48041866    -0.80600
H1417       H  0.74274724  0.66235508  0.54295208     0.34200
H1418       H  0.72663941  0.64437073  0.52559431     0.38700
H1419       H  0.63796786  0.70159186  0.46026494     0.34100
H1420       H  0.62653768  0.70426035  0.49388953     0.30800
H1421       H  0.64852848  0.69532600  0.59508295     0.34200
H1422       H  0.63968811  0.68771785  0.56247021     0.30800
H1423       H  0.65025659  0.77301989  0.52233085     0.38700
H1424       H  0.68037362  0.76619789  0.50446298     0.34200
C1425       C  0.70995665  0.83725557  0.60295828    -0.19600
C1426       C  0.74025280  0.83201398  0.60317730     0.36700
C1427       C  0.76176169  0.84544074  0.59540739    -0.25500
C1428       C  0.75396686  0.86412476  0.58819769     0.03100
C1429       C  0.72391839  0.86963434  0.58930774     0.27900
C1430       C  0.70223251  0.85609344  0.59632889    -0.24700
N1431       N  0.74914132  0.81293400  0.61010370    -0.82000
H1432       H  0.78475968  0.84111213  0.59411206     0.13700
C1433       C  0.77722200  0.87692783  0.57659850     0.03100
N1434       N  0.71554543  0.88889398  0.58297511    -0.80600
H1435       H  0.67913894  0.86028896  0.59656670     0.18500
C1436       C  0.77286824  0.88510049  0.54980124    -0.25500
C1437       C  0.79560259  0.89505860  0.53598360     0.36600
C1438       C  0.82389579  0.89624395  0.54878192    -0.19500
C1439       C  0.82777046  0.88891156  0.57629555    -0.24700
C1440       C  0.80463957  0.87946261  0.59045844     0.27900
H1441       H  0.75188148  0.88312054  0.53907965     0.13700
N1442       N  0.79011712  0.90351222  0.50872010    -0.82000
H1443       H  0.84914123  0.89011669  0.58656766     0.18600
N1444       N  0.80903778  0.87208460  0.61858782    -0.80600
H1445       H  0.76844111  0.90081993  0.50204049     0.34200
H1446       H  0.79176325  0.91824659  0.51119050     0.38700
H1447       H  0.83048593  0.87501952  0.62569482     0.34100
H1448       H  0.79454897  0.87931160  0.63213536     0.30800
H1449       H  0.69258952  0.89058775  0.58451689     0.34200
H1450       H  0.72494604  0.89762654  0.59848501     0.30800
H1451       H  0.74555026  0.81104317  0.63183080     0.38700
H1452       H  0.77190602  0.81113717  0.60698164     0.34200
C1453       C  0.67285721  0.29582585  0.33826709    -0.19600
C1454       C  0.67206807  0.31531125  0.33087433     0.36700
C1455       C  0.67807802  0.32909140  0.35167825    -0.25500
C1456       C  0.68600857  0.32389785  0.37937146     0.03100
C1457       C  0.68830321  0.30446824  0.38641693     0.27900
C1458       C  0.68122904  0.29066662  0.36596329    -0.24700
N1459       N  0.66429078  0.32114266  0.30262444    -0.82000
H1460       H  0.67617864  0.34402766  0.34636263     0.13700
C1461       C  0.69043381  0.33897863  0.40104773     0.03100
N1462       N  0.69778421  0.29886181  0.41430755    -0.80600
H1463       H  0.68236676  0.27576748  0.37169466     0.18500
C1464       C  0.67304602  0.33870589  0.42570725    -0.25500
C1465       C  0.67529381  0.35313539  0.44618453     0.36600
C1466       C  0.69600693  0.36799884  0.44225763    -0.19500
C1467       C  0.71324622  0.36832256  0.41741343    -0.24700
C1468       C  0.71060369  0.35401951  0.39673405     0.27900
H1469       H  0.65701311  0.32741012  0.42859856     0.13700
N1470       N  0.65612708  0.35290949  0.47056281    -0.82000
H1471       H  0.72907908  0.37968831  0.41419834     0.18600
N1472       N  0.72834528  0.35467901  0.37141031    -0.80600
H1473       H  0.64257790  0.34086036  0.47040263     0.34200
H1474       H  0.64198945  0.36464250  0.46894731     0.38700
H1475       H  0.74184305  0.36675088  0.37134030     0.34100
H1476       H  0.74247063  0.34289814  0.37168694     0.30800
H1477       H  0.69823598  0.28404764  0.41608872     0.34200
H1478       H  0.71959772  0.30353245  0.41689863     0.30800
H1479       H  0.68169914  0.31713314  0.28926141     0.38700
H1480       H  0.66297368  0.33595785  0.30131043     0.34200
C1481       C  0.82716761  0.15683371  0.37070384    -0.19600
C1482       C  0.82876135  0.15891883  0.34091063     0.36700
C1483       C  0.80487150  0.16721273  0.32628839    -0.25500
C1484       C  0.77967031  0.17373134  0.34081125     0.03100
C1485       C  0.77788924  0.17132995  0.37049683     0.27900
C1486       C  0.80143455  0.16267603  0.38501165    -0.24700
N1487       N  0.85455064  0.15268950  0.32559564    -0.82000
H1488       H  0.80605759  0.16888245  0.30346752     0.13700
C1489       C  0.75621638  0.18429822  0.32522814     0.03100
N1490       N  0.75258713  0.17824404  0.38593692    -0.80600
H1491       H  0.80011383  0.16116585  0.40785047     0.18500
C1492       C  0.72652916  0.17856450  0.32760210    -0.25500
C1493       C  0.70332729  0.18994027  0.31708481     0.36600
C1494       C  0.71011080  0.20732211  0.30337020    -0.19500
C1495       C  0.74001516  0.21214416  0.29903188    -0.24700
C1496       C  0.76306189  0.20096910  0.30998232     0.27900
H1497       H  0.72140563  0.16550380  0.33876072     0.13700
N1498       N  0.67312475  0.18396797  0.32078506    -0.82000
H1499       H  0.74557430  0.22519322  0.28805969     0.18600
N1500       N  0.79334092  0.20690922  0.30658953    -0.80600
H1501       H  0.67226212  0.17029132  0.32943830     0.34200
H1502       H  0.66349038  0.19295516  0.33585420     0.38700
H1503       H  0.79459898  0.21934941  0.29451226     0.34100
H1504       H  0.80159186  0.21025337  0.32669392     0.30800
H1505       H  0.75464375  0.17526396  0.40757424     0.34200
H1506       H  0.75228296  0.19305167  0.38401288     0.30800
H1507       H  0.85575909  0.13790317  0.32754945     0.38700
H1508       H  0.85235048  0.15558186  0.30394376     0.34200
C1509       C  0.97985672  0.91236057  0.89293513    -0.19600
C1510       C  0.99247392  0.89807528  0.87553682     0.36700
C1511       C  0.02333743  0.89783584  0.87118540    -0.25500
C1512       C  0.04170404  0.91141092  0.88402632     0.03100
C1513       C  0.02894773  0.92620200  0.90010224     0.27900
C1514       C  0.99817408  0.92671496  0.90390133    -0.24700
N1515       N  0.97434719  0.88324432  0.86379513    -0.82000
H1516       H  0.03330206  0.88656970  0.85873141     0.13700
C1517       C  0.07436154  0.90911383  0.88316832     0.03100
N1518       N  0.04746875  0.94003377  0.91387851    -0.80600
H1519       H  0.98866276  0.93780205  0.91701713     0.18500
C1520       C  0.09185268  0.92388688  0.87237704    -0.25500
C1521       C  0.12273897  0.92392922  0.87604408     0.36600
C1522       C  0.13647133  0.90875255  0.89074751    -0.19500
C1523       C  0.11905558  0.89328103  0.89965338    -0.24700
C1524       C  0.08810113  0.89340443  0.89630433     0.27900
H1525       H  0.08114967  0.93582892  0.86208136     0.13700
N1526       N  0.13999513  0.93961784  0.86562867    -0.82000
H1527       H  0.12937437  0.88153820  0.91076385     0.18600
N1528       N  0.07044507  0.87810293  0.90743329    -0.80600
H1529       H  0.12639720  0.94978596  0.85602619     0.34200
H1530       H  0.15395152  0.93437338  0.84973954     0.38700
H1531       H  0.08393293  0.86762128  0.91640257     0.34100
H1532       H  0.05748162  0.88358251  0.92391124     0.30800
H1533       H  0.03462718  0.94997980  0.92487351     0.34200
H1534       H  0.06012904  0.93289806  0.92909543     0.30800
H1535       H  0.96048841  0.88947976  0.84866770     0.38700
H1536       H  0.98736533  0.87333223  0.85291995     0.34200
C1537       C  0.90885182  0.86222065  0.99302214    -0.19600
C1538       C  0.88773829  0.85563154  0.01293686     0.36700
C1539       C  0.89527180  0.84053898  0.03128207    -0.25500
C1540       C  0.92314091  0.83173259  0.02967873     0.03100
C1541       C  0.94402821  0.83819907  0.00970135     0.27900
C1542       C  0.93671427  0.85334218  0.99170312    -0.24700
N1543       N  0.85869101  0.86397441  0.01418518    -0.82000
H1544       H  0.87928826  0.83544336  0.04665850     0.13700
C1545       C  0.93098619  0.81610567  0.04946377     0.03100
N1546       N  0.97272487  0.82938795  0.00790264    -0.80600
H1547       H  0.95305022  0.85827228  0.97655066     0.18500
C1548       C  0.93691993  0.79795105  0.03858823    -0.25500
C1549       C  0.94831599  0.78342475  0.05597764     0.36600
C1550       C  0.95392682  0.78719625  0.08503663    -0.19500
C1551       C  0.94655283  0.80517970  0.09604614    -0.24700
C1552       C  0.93523653  0.81966330  0.07855852     0.27900
H1553       H  0.93334248  0.79528146  0.01620839     0.13700
N1554       N  0.95379782  0.76490209  0.04417700    -0.82000
H1555       H  0.95032217  0.80814317  0.11829990     0.18600
N1556       N  0.92866910  0.83811386  0.09008126    -0.80600
H1557       H  0.94587004  0.76411697  0.02337414     0.34200
H1558       H  0.97674680  0.76316778  0.04278320     0.38700
H1559       H  0.93278536  0.83838644  0.11189801     0.34100
H1560       H  0.94325992  0.84784956  0.08083114     0.30800
H1561       H  0.98543803  0.83567558  0.99190760     0.34200
H1562       H  0.98374753  0.83198643  0.02700823     0.30800
H1563       H  0.84797942  0.86083348  0.99509579     0.38700
H1564       H  0.84611019  0.85765199  0.03024814     0.34200
C1565       C  0.97564813  0.12806509  0.04969199    -0.19600
C1566       C  0.99292871  0.11189205  0.05643166     0.36700
C1567       C  0.02373936  0.11392690  0.06017496    -0.25500
C1568       C  0.03735654  0.13182129  0.05820846     0.03100
C1569       C  0.01937882  0.14818014  0.05594862     0.27900
C1570       C  0.98880221  0.14613344  0.05145448    -0.24700
N1571       N  0.97960169  0.09336532  0.05768675    -0.82000
H1572       H  0.03738400  0.10134621  0.06241286     0.13700
C1573       C  0.06982999  0.13297642  0.05254649     0.03100
N1574       N  0.03261684  0.16676453  0.05641448    -0.80600
H1575       H  0.97555648  0.15870946  0.04753907     0.18500
C1576       C  0.07890031  0.14211901  0.02759213    -0.25500
C1577       C  0.10859547  0.14230425  0.01904266     0.36600
C1578       C  0.13009425  0.13263779  0.03541701    -0.19500
C1579       C  0.12130153  0.12387793  0.06094192    -0.24700
C1580       C  0.09131149  0.12394554  0.06967483     0.27900
H1581       H  0.06246306  0.14882418  0.01416369     0.13700
N1582       N  0.11687667  0.15224614  0.99357524    -0.82000
H1583       H  0.13769034  0.11658335  0.07371386     0.18600
N1584       N  0.08256332  0.11474004  0.09557071    -0.80600
H1585       H  0.09834150  0.15823841  0.98373522     0.34200
H1586       H  0.13050561  0.16358111  0.99950716     0.38700
H1587       H  0.10094361  0.10871823  0.10563131     0.34100
H1588       H  0.07434330  0.12521709  0.10920247     0.30800
H1589       H  0.01647522  0.17730801  0.05401970     0.34200
H1590       H  0.04195938  0.16869366  0.07649097     0.30800
H1591       H  0.96487233  0.09336992  0.07481612     0.38700
H1592       H  0.99554202  0.08300004  0.06215103     0.34200
C1593       C  0.90815587  0.16269884  0.93291849    -0.19600
C1594       C  0.93635830  0.16421337  0.92005241     0.36700
C1595       C  0.94253004  0.17952005  0.90194374    -0.25500
C1596       C  0.92125838  0.19357208  0.89649502     0.03100
C1597       C  0.89277870  0.19188873  0.90851895     0.27900
C1598       C  0.88644391  0.17638580  0.92637017    -0.24700
N1599       N  0.95910204  0.15052429  0.92568477    -0.82000
H1600       H  0.96435184  0.18064748  0.89248191     0.13700
C1601       C  0.92963593  0.21031847  0.87911369     0.03100
N1602       N  0.87072117  0.20621695  0.90326873    -0.80600
H1603       H  0.86473619  0.17542783  0.93606647     0.18500
C1604       C  0.91415837  0.21433139  0.85402129    -0.25500
C1605       C  0.92197034  0.22991893  0.83684056     0.36600
C1606       C  0.94553602  0.24192093  0.84532791    -0.19500
C1607       C  0.96096487  0.23772688  0.87044580    -0.24700
C1608       C  0.95325772  0.22215195  0.88741061     0.27900
H1609       H  0.89620890  0.20505890  0.84762249     0.13700
N1610       N  0.90607615  0.23347302  0.81096355    -0.82000
H1611       H  0.97909857  0.24674429  0.87714285     0.18600
N1612       N  0.96914761  0.21841084  0.91324565    -0.80600
H1613       H  0.88870488  0.22377822  0.80858859     0.34200
H1614       H  0.92066163  0.23093050  0.79414448     0.38700
H1615       H  0.98613795  0.22831730  0.91613571     0.34100
H1616       H  0.95435954  0.22025892  0.93010188     0.30800
H1617       H  0.85091182  0.20285105  0.91361135     0.34200
H1618       H  0.87829556  0.21891849  0.91220734     0.30800
H1619       H  0.97728597  0.15766943  0.93432456     0.38700
H1620       H  0.96569592  0.14456873  0.90636112     0.34200
C1621       C  0.87385636  0.06447899  0.98077601    -0.19600
C1622       C  0.85763673  0.05210849  0.99870575     0.36700
C1623       C  0.85677668  0.03257545  0.99253194    -0.25500
C1624       C  0.87061477  0.02529223  0.96827457     0.03100
C1625       C  0.88472068  0.03774316  0.94916702     0.27900
C1626       C  0.88638331  0.05719414  0.95570516    -0.24700
N1627       N  0.84205128  0.05934149  0.02302306    -0.82000
H1628       H  0.84524478  0.02293532  0.00666705     0.13700
C1629       C  0.87090189  0.00451612  0.96349073     0.03100
N1630       N  0.89777844  0.03050891  0.92350650    -0.80600
H1631       H  0.89824634  0.06659830  0.94148986     0.18500
C1632       C  0.85624135  0.99700197  0.93984860    -0.25500
C1633       C  0.85744812  0.97747587  0.93376962     0.36600
C1634       C  0.87415433  0.96533249  0.95150890    -0.19500
C1635       C  0.88780145  0.97280527  0.97582999    -0.24700
C1636       C  0.88643501  0.99230978  0.98195589     0.27900
H1637       H  0.84392047  0.00646069  0.92606521     0.13700
N1638       N  0.84170795  0.96996713  0.90976062    -0.82000
H1639       H  0.90049023  0.96352346  0.98956921     0.18600
N1640       N  0.90130752  0.99985522  0.00645424    -0.80600
H1641       H  0.83070509  0.98082403  0.89887405     0.34200
H1642       H  0.82532139  0.96084207  0.91753115     0.38700
H1643       H  0.91154717  0.98896842  0.01794063     0.34100
H1644       H  0.91820528  0.00880493  0.99926857     0.30800
H1645       H  0.90696822  0.04155893  0.91156584     0.34200
H1646       H  0.91526595  0.02154964  0.92922832     0.30800
H1647       H  0.82516378  0.06820089  0.01554799     0.38700
H1648       H  0.83162987  0.04831201  0.03405147     0.34200
C1649       C  0.72521741  0.67194124  0.91243778    -0.19600
C1650       C  0.71159937  0.66654251  0.88659511     0.36700
C1651       C  0.70121392  0.68072413  0.86794273    -0.25500
C1652       C  0.70475999  0.70007357  0.87425923     0.03100
C1653       C  0.71995593  0.70543373  0.89906182     0.27900
C1654       C  0.72961867  0.69136782  0.91803342    -0.24700
N1655       N  0.70722721  0.64681978  0.87984985    -0.82000
H1656       H  0.68967907  0.67670344  0.84870849     0.13700
C1657       C  0.69112150  0.71468695  0.85568128     0.03100
N1658       N  0.72525000  0.72519772  0.90495805    -0.80600
H1659       H  0.74045850  0.69564888  0.93750612     0.18500
C1660       C  0.66911588  0.72653674  0.86699952    -0.25500
C1661       C  0.65602067  0.74096854  0.85067171     0.36600
C1662       C  0.66543003  0.74376192  0.82231402    -0.19500
C1663       C  0.68699468  0.73150595  0.81083250    -0.24700
C1664       C  0.70002643  0.71706451  0.82727273     0.27900
H1665       H  0.66214628  0.72447639  0.88879011     0.13700
N1666       N  0.63345666  0.75282797  0.86297333    -0.82000
H1667       H  0.69439596  0.73352357  0.78917771     0.18600
N1668       N  0.72274338  0.70510832  0.81548183    -0.80600
H1669       H  0.62994427  0.74927954  0.88425076     0.34200
H1670       H  0.61363652  0.74991435  0.85237460     0.38700
H1671       H  0.72673062  0.70867425  0.79428866     0.34100
H1672       H  0.74235049  0.70786666  0.82652567     0.30800
H1673       H  0.73663176  0.72678358  0.92411837     0.34200
H1674       H  0.73921529  0.73041012  0.88905535     0.30800
H1675       H  0.72811179  0.64085737  0.87625972     0.38700
H1676       H  0.69555393  0.64540700  0.86081570     0.34200
C1677       C  0.70447060  0.83190528  0.80925299    -0.19600
C1678       C  0.73199466  0.83581068  0.79603762     0.36700
C1679       C  0.75348987  0.84635009  0.81074713    -0.25500
C1680       C  0.74863234  0.85261315  0.83860000     0.03100
C1681       C  0.72110470  0.84899736  0.85169189     0.27900
C1682       C  0.69921073  0.83893034  0.83673844    -0.24700
N1683       N  0.73811104  0.82927082  0.76773408    -0.82000
H1684       H  0.77448155  0.84944550  0.80058488     0.13700
C1685       C  0.77289396  0.86265993  0.85374233     0.03100
N1686       N  0.71574296  0.85515480  0.88032369    -0.80600
H1687       H  0.67827200  0.83596883  0.84707034     0.18500
C1688       C  0.76804261  0.88102093  0.86450028    -0.25500
C1689       C  0.79076830  0.89106103  0.87837306     0.36600
C1690       C  0.81889382  0.88251494  0.88135388    -0.19500
C1691       C  0.82388696  0.86435836  0.87009090    -0.24700
C1692       C  0.80113878  0.85424261  0.85661325     0.27900
H1693       H  0.74653664  0.88760877  0.86174218     0.13700
N1694       N  0.78577391  0.91015721  0.88816299    -0.82000
H1695       H  0.84547801  0.85781037  0.87252404     0.18600
N1696       N  0.80651096  0.83536536  0.84608693    -0.80600
H1697       H  0.76458226  0.91477069  0.88244559     0.34200
H1698       H  0.78613860  0.90994450  0.91031771     0.38700
H1699       H  0.82849831  0.83134036  0.84963374     0.34100
H1700       H  0.79329516  0.82602523  0.85781150     0.30800
H1701       H  0.69433125  0.85147069  0.88675959     0.34200
H1702       H  0.73033050  0.84774103  0.89352300     0.30800
H1703       H  0.74128062  0.81456777  0.76877354     0.38700
H1704       H  0.75813286  0.83489146  0.76037504     0.34200
C1705       C  0.66366028  0.29508094  0.08087922    -0.19600
C1706       C  0.66757168  0.29476717  0.05104774     0.36700
C1707       C  0.67932314  0.31081662  0.03736956    -0.25500
C1708       C  0.68689621  0.32713917  0.05270035     0.03100
C1709       C  0.68360270  0.32743700  0.08232216     0.27900
C1710       C  0.67184168  0.31146143  0.09612417    -0.24700
N1711       N  0.65984310  0.27824975  0.03468741    -0.82000
H1712       H  0.68190949  0.31081956  0.01450743     0.13700
C1713       C  0.69610117  0.34429085  0.03703695     0.03100
N1714       N  0.69228843  0.34396758  0.09818309    -0.80600
H1715       H  0.66916543  0.31182576  0.11895448     0.18500
C1716       C  0.67590551  0.35927721  0.03434866    -0.25500
C1717       C  0.68202155  0.37488264  0.01673546     0.36600
C1718       C  0.70915336  0.37545458  0.00164384    -0.19500
C1719       C  0.72991683  0.36077664  0.00559124    -0.24700
C1720       C  0.72358444  0.34514535  0.02307020     0.27900
H1721       H  0.65475994  0.35838508  0.04517726     0.13700
N1722       N  0.66001680  0.38943699  0.01285965    -0.82000
H1723       H  0.75075094  0.36114491  0.99417894     0.18600
N1724       N  0.74448807  0.32985621  0.02604870    -0.80600
H1725       H  0.64063098  0.38609481  0.02394068     0.34200
H1726       H  0.66822646  0.40189456  0.02202315     0.38700
H1727       H  0.76355430  0.33256680  0.01411196     0.34100
H1728       H  0.75106701  0.32943750  0.04729856     0.30800
H1729       H  0.68838220  0.34193500  0.11983560     0.34200
H1730       H  0.71518744  0.34554408  0.09580071     0.30800
H1731       H  0.63674651  0.27718576  0.03476267     0.38700
H1732       H  0.66603881  0.27999132  0.01346736     0.34200
C1733       C  0.69182645  0.20105462  0.09861375    -0.19600
C1734       C  0.69585755  0.19637035  0.06964778     0.36700
C1735       C  0.71951043  0.18444717  0.06170964    -0.25500
C1736       C  0.73866274  0.17661982  0.08203681     0.03100
C1737       C  0.73347576  0.18021186  0.11100245     0.27900
C1738       C  0.71036501  0.19250502  0.11895842    -0.24700
N1739       N  0.67635933  0.20389892  0.04832942    -0.82000
H1740       H  0.72342495  0.18152904  0.03944822     0.13700
C1741       C  0.76495112  0.16559613  0.07245243     0.03100
N1742       N  0.75186415  0.17145675  0.13218928    -0.80600
H1743       H  0.70719960  0.19566302  0.14124374     0.18500
C1744       C  0.79339178  0.17203410  0.07964015    -0.25500
C1745       C  0.81893617  0.16319007  0.06872560     0.36600
C1746       C  0.81588553  0.14775930  0.04969211    -0.19500
C1747       C  0.78737810  0.14093052  0.04338962    -0.24700
C1748       C  0.76193594  0.14954255  0.05482401     0.27900
H1749       H  0.79562790  0.18437457  0.09322824     0.13700
N1750       N  0.84774967  0.17042591  0.07590930    -0.82000
H1751       H  0.78489402  0.12889701  0.02924482     0.18600
N1752       N  0.73300822  0.14218336  0.04842222    -0.80600
H1753       H  0.84590335  0.18256441  0.08859212     0.34200
H1754       H  0.85825071  0.16017247  0.08841879     0.38700
H1755       H  0.73458378  0.13034820  0.03508728     0.34100
H1756       H  0.72369487  0.13739824  0.06743895     0.30800
H1757       H  0.74520137  0.17558887  0.15252348     0.34200
H1758       H  0.74855852  0.15677001  0.13093118     0.30800
H1759       H  0.65540183  0.19802593  0.05182822     0.38700
H1760       H  0.68292372  0.19943137  0.02812059     0.34200
loop_ 
_geom_bond_atom_site_label_1 
_geom_bond_atom_site_label_2 
_geom_bond_distance 
_geom_bond_site_symmetry_2 
_ccdc_geom_bond_type 
O1            C4   1.266       .  A
O1           Cd6   2.449       .  S
C2           O11   1.265       .  A
C2            O7   1.268       .  A
C2           C56   1.467       .  S
O3            C9   1.266       .  A
O3           Cd6   2.523       .  S
C4           O12   1.265       .  A
C4         C1705   1.484       .  S
C5           O10   1.265       .  A
C5            O8   1.264       .  A
C5         C1733   1.491       .  S
Cd6          O13   2.427       .  S
Cd6          O12   2.454       .  S
Cd6          O11   2.424       .  S
Cd6           O7   2.497       .  S
Cd6          O10   2.498       .  S
Cd6           O8   2.463       .  S
C9           O13   1.259       .  A
C9          C113   1.465       .  S
O14          C17   1.266       .  A
O14         Cd19   2.468       .  S
C15          O24   1.265       .  A
C15          O20   1.265       .  A
C15          C67   1.461       .  S
O16          C22   1.266       .  A
O16         Cd19   2.474       .  S
C17          O25   1.265       .  A
C17        C1662   1.487       .  S
C18          O23   1.266       .  A
C18          O21   1.263       .  A
C18        C1677   1.487       .  S
Cd19         O26   2.438       .  S
Cd19         O25   2.448       .  S
Cd19         O24   2.452       .  S
Cd19         O20   2.458       .  S
Cd19         O23   2.476       .  S
Cd19         O21   2.461       .  S
C22          O26   1.265       .  A
C22         C126   1.463       .  S
O27          C30   1.265       .  A
O27         Cd32   2.461       .  S
C28          O37   1.266       .  A
C28          O33   1.264       .  A
C28        C1565   1.490       .  S
O29          C35   1.266       .  A
O29         Cd32   2.479   1_556  S
C30          O38   1.265       .  A
C30        C1746   1.485       .  S
C31          O36   1.265       .  A
C31          O34   1.265       .  A
C31        C1593   1.489       .  S
Cd32         O39   2.466       .  S
Cd32         O38   2.471       .  S
Cd32         O37   2.497       .  S
Cd32         O33   2.456       .  S
Cd32         O36   2.473   1_554  S
Cd32         O34   2.475   1_554  S
C35          O39   1.264   1_556  A
C35        C1621   1.487       .  S
O40          C43   1.266       .  A
O40         Cd45   2.476       .  S
C41          O50   1.265       .  A
C41          O46   1.263       .  A
C41        C1690   1.474       .  S
O42          C48   1.265       .  A
O42         Cd45   2.508       .  S
C43          O51   1.266       .  A
C43        C1509   1.484       .  S
C44          O49   1.267       .  A
C44          O47   1.266       .  A
C44        C1634   1.478       .  S
Cd45         O52   2.435       .  S
Cd45         O51   2.435       .  S
Cd45         O50   2.458       .  S
Cd45         O46   2.462       .  S
Cd45         O49   2.452       .  S
Cd45         O47   2.442       .  S
C48          O52   1.261       .  A
C48        C1537   1.485       .  S
O53          C56   1.268       .  A
O53         Cd58   2.514       .  S
C54          O63   1.266       .  A
C54          O59   1.268       .  A
C54        C1453   1.486       .  S
O55          C61   1.268       .  A
O55         Cd58   2.487       .  S
C56          O64   1.262       .  A
C57          O62   1.268       .  A
C57          O60   1.265       .  A
C57        C1494   1.489       .  S
Cd58         O65   2.448       .  S
Cd58         O64   2.424       .  S
Cd58         O63   2.448       .  S
Cd58         O59   2.473       .  S
Cd58         O62   2.487       .  S
Cd58         O60   2.435       .  S
C61          O65   1.265       .  A
C61         C165   1.468       .  S
O66          C69   1.266       .  A
O66         Cd71   2.447       .  S
C67          O76   1.265       .  A
C67          O72   1.266       .  A
O68          C74   1.269       .  A
O68         Cd71   2.476       .  S
C69          O77   1.266       .  A
C69        C1397   1.481       .  S
C70          O75   1.269       .  A
C70          O73   1.262       .  A
C70         C178   1.460       .  S
Cd71         O78   2.434       .  S
Cd71         O77   2.452       .  S
Cd71         O76   2.450       .  S
Cd71         O72   2.455       .  S
Cd71         O75   2.494       .  S
Cd71         O73   2.399       .  S
C74          O78   1.264       .  A
C74        C1425   1.485       .  S
O79          C82   1.265       .  A
O79         Cd84   2.482       .  S
C80          O89   1.266       .  A
C80          O85   1.264       .  A
C80        C1313   1.484       .  S
O81          C87   1.266       .  A
O81         Cd84   2.495       .  S
C82          O90   1.263       .  A
C82        C1438   1.487       .  S
C83          O88   1.265       .  A
C83          O86   1.264       .  A
C83        C1382   1.486       .  S
Cd84         O91   2.472       .  S
Cd84         O90   2.455       .  S
Cd84         O89   2.478       .  S
Cd84         O85   2.460       .  S
Cd84         O88   2.488       .  S
Cd84         O86   2.464       .  S
C87          O91   1.266       .  A
C87        C1341   1.494       .  S
O92          C95   1.265       .  A
O92         Cd97   2.470       .  S
C93         O102   1.262       .  A
C93          O98   1.266       .  A
C93        C1257   1.475       .  S
O94         C100   1.267       .  A
O94         Cd97   2.471       .  S
C95         O103   1.265       .  A
C95        C1481   1.483       .  S
C96         O101   1.264       .  A
C96          O99   1.265       .  A
C96        C1369   1.488       .  S
Cd97        O104   2.445       .  S
Cd97        O103   2.455       .  S
Cd97        O102   2.424       .  S
Cd97         O98   2.487       .  S
Cd97        O101   2.467       .  S
Cd97         O99   2.474       .  S
C100        O104   1.266       .  A
C100       C1285   1.486       .  S
O105        C108   1.265       .  A
O105       Cd110   2.442       .  S
C106        O115   1.265       .  A
C106        O111   1.266       .  A
C106       C1214   1.487       .  S
O107        C113   1.266       .  A
O107       Cd110   2.501       .  S
C108        O116   1.264       .  A
C108        C158   1.458       .  S
C109        O114   1.265       .  A
C109        O112   1.264       .  A
C109       C1242   1.483       .  S
Cd110       O117   2.424       .  S
Cd110       O116   2.455       .  S
Cd110       O115   2.446       .  S
Cd110       O111   2.489       .  S
Cd110       O114   2.435       .  S
Cd110       O112   2.470       .  S
C113        O117   1.263       .  A
O118        C121   1.264       .  A
O118       Cd123   2.451       .  S
C119        O128   1.265       .  A
C119        O124   1.267       .  A
C119       C1145   1.484       .  S
O120        C126   1.268       .  A
O120       Cd123   2.480       .  S
C121        O129   1.266       .  A
C121        C171   1.464       .  S
C122        O127   1.269       .  A
C122        O125   1.262       .  A
C122       C1173   1.489       .  S
Cd123       O130   2.426       .  S
Cd123       O129   2.478       .  S
Cd123       O128   2.440       .  S
Cd123       O124   2.468       .  S
Cd123       O127   2.503       .  S
Cd123       O125   2.419       .  S
C126        O130   1.263       .  A
O131        C134   1.268       .  A
O131       Cd136   2.482       .  S
C132        O141   1.267       .  A
C132        O137   1.262   1_554  A
C132       C1578   1.490       .  S
O133        C139   1.267       .  A
O133       Cd136   2.452   1_556  S
C134        O142   1.263       .  A
C134       C1229   1.481       .  S
C135        O140   1.265       .  A
C135        O138   1.262   1_556  A
C135       C1130   1.490       .  S
Cd136       O143   2.467   1_554  S
Cd136       O142   2.447       .  S
Cd136       O141   2.535       .  S
Cd136       O137   2.430   1_554  S
Cd136       O140   2.501   1_554  S
Cd136       O138   2.451       .  S
C139        O143   1.268       .  A
C139       C1089   1.486       .  S
O144        C147   1.267       .  A
O144       Cd149   2.484       .  S
C145        O154   1.263       .  A
C145        O150   1.264       .  A
C145       C1522   1.488       .  S
O146        C152   1.265       .  A
O146       Cd149   2.420       .  S
C147        O155   1.262       .  A
C147       C1186   1.481       .  S
C148        O153   1.267       .  A
C148        O151   1.264       .  A
C148       C1117   1.483       .  S
Cd149       O156   2.468       .  S
Cd149       O155   2.442       .  S
Cd149       O154   2.464       .  S
Cd149       O150   2.495       .  S
Cd149       O153   2.479       .  S
Cd149       O151   2.432       .  S
C152        O156   1.268       .  A
C152       C1074   1.478       .  S
O157        C160   1.265       .  A
O157       Cd162   2.445       .  S
C158        O167   1.265       .  A
C158        O163   1.264       .  A
O159        C165   1.268       .  A
O159       Cd162   2.491       .  S
C160        O168   1.267       .  A
C160       C1005   1.481       .  S
C161        O166   1.268       .  A
C161        O164   1.264       .  A
C161       C1033   1.483       .  S
Cd162       O169   2.446       .  S
Cd162       O168   2.447       .  S
Cd162       O167   2.456       .  S
Cd162       O163   2.437       .  S
Cd162       O166   2.477       .  S
Cd162       O164   2.442       .  S
C165        O169   1.264       .  A
O170        C173   1.267       .  A
O170       Cd175   2.498       .  S
C171        O180   1.265       .  A
C171        O176   1.267       .  A
O172        C178   1.266       .  A
O172       Cd175   2.489       .  S
C173        O181   1.264       .  A
C173        C949   1.483       .  S
C174        O179   1.267       .  A
C174        O177   1.264       .  A
C174        C990   1.473       .  S
Cd175       O182   2.410       .  S
Cd175       O181   2.426       .  S
Cd175       O180   2.461       .  S
Cd175       O176   2.450       .  S
Cd175       O179   2.468       .  S
Cd175       O177   2.412       .  S
C178        O182   1.263       .  A
O183        C186   1.265       .  A
O183       Cd188   2.474       .  S
C184        O193   1.267       .  A
C184        O189   1.265       .  A
C184       C1270   1.478       .  S
O185        C191   1.265       .  A
O185       Cd188   2.427       .  S
C186        O194   1.262       .  A
C186       C1046   1.481       .  S
C187        O192   1.265       .  A
C187        O190   1.265       .  A
C187        C906   1.481       .  S
Cd188       O195   2.459       .  S
Cd188       O194   2.427       .  S
Cd188       O193   2.473       .  S
Cd188       O189   2.424       .  S
Cd188       O192   2.431       .  S
Cd188       O190   2.458       .  S
C191        O195   1.264       .  A
C191        C934   1.474       .  S
O196        C199   1.267       .  A
O196       Cd201   2.474       .  S
C197        O206   1.266       .  A
C197        O202   1.267       .  A
C197        C977   1.482       .  S
O198        C204   1.260       .  A
O198       Cd201   2.451       .  S
C199        O207   1.265       .  A
C199       C1326   1.479       .  S
C200        O205   1.266       .  A
C200        O203   1.265       .  A
C200        C921   1.487       .  S
Cd201       O208   2.477       .  S
Cd201       O207   2.427       .  S
Cd201       O206   2.438       .  S
Cd201       O202   2.461       .  S
Cd201       O205   2.481       .  S
Cd201       O203   2.448       .  S
C204        O208   1.264       .  A
C204        C865   1.481       .  S
O209        C212   1.265       .  A
O209       Cd214   2.468       .  S
C210        O219   1.265       .  A
C210        O215   1.266       .  A
C210        C893   1.472       .  S
O211        C217   1.266       .  A
O211       Cd214   2.490       .  S
C212        O220   1.264       .  A
C212        C262   1.460       .  S
C213        O218   1.268       .  A
C213        O216   1.265       .  A
C213        C837   1.480       .  S
Cd214       O221   2.414       .  S
Cd214       O220   2.437       .  S
Cd214       O219   2.419       .  S
Cd214       O215   2.460       .  S
Cd214       O218   2.474       .  S
Cd214       O216   2.414       .  S
C217        O221   1.261       .  A
C217        C373   1.458       .  S
O222        C225   1.266       .  A
O222       Cd227   2.471       .  S
C223        O232   1.269       .  A
C223        O228   1.268       .  A
C223        C878   1.483       .  S
O224        C230   1.269       .  A
O224       Cd227   2.515       .  S
C225        O233   1.263       .  A
C225        C275   1.457       .  S
C226        O231   1.269       .  A
C226        O229   1.262       .  A
C226        C822   1.482       .  S
Cd227       O234   2.409       .  S
Cd227       O233   2.427       .  S
Cd227       O232   2.442       .  S
Cd227       O228   2.422       .  S
Cd227       O231   2.475       .  S
Cd227       O229   2.421       .  S
C230        O234   1.261       .  A
C230        C386   1.466       .  S
O235        C238   1.263       .  A
O235       Cd240   2.457       .  S
C236        O245   1.264       .  A
C236        O241   1.265       .  A
C236        C753   1.482       .  S
O237        C243   1.267       .  A
O237       Cd240   2.462       .  S
C238        O246   1.265       .  A
C238        C850   1.476       .  S
C239        O244   1.263       .  A
C239        O242   1.267       .  A
C239        C781   1.489       .  S
Cd240       O247   2.464       .  S
Cd240       O246   2.447       .  S
Cd240       O245   2.432       .  S
Cd240       O241   2.480       .  S
Cd240       O244   2.435       .  S
Cd240       O242   2.509       .  S
C243        O247   1.265       .  A
C243       C1018   1.485       .  S
O248        C251   1.268       .  A
O248       Cd253   2.471       .  S
C249        O258   1.265       .  A
C249        O254   1.262       .  A
C249        C738   1.496       .  S
O250        C256   1.270       .  A
O250       Cd253   2.488       .  S
C251        O259   1.262       .  A
C251        C809   1.483       .  S
C252        O257   1.265       .  A
C252        O255   1.266       .  A
C252        C794   1.484       .  S
Cd253       O260   2.405       .  S
Cd253       O259   2.446       .  S
Cd253       O258   2.523       .  S
Cd253       O254   2.473       .  S
Cd253       O257   2.447       .  S
Cd253       O255   2.473       .  S
C256        O260   1.263       .  A
C256        C962   1.483       .  S
O261        C264   1.266       .  A
O261       Cd266   2.476       .  S
C262        O271   1.265       .  A
C262        O267   1.266       .  A
O263        C269   1.268       .  A
O263       Cd266   2.498       .  S
C264        O272   1.264       .  A
C264       C1102   1.487       .  S
C265        O270   1.267       .  A
C265        O268   1.264       .  A
C265        C710   1.486       .  S
Cd266       O273   2.430       .  S
Cd266       O272   2.441       .  S
Cd266       O271   2.436       .  S
Cd266       O267   2.468       .  S
Cd266       O270   2.497       .  S
Cd266       O268   2.430       .  S
C269        O273   1.263       .  A
C269        C317   1.466       .  S
O274        C277   1.264       .  A
O274       Cd279   2.456       .  S
C275        O284   1.263       .  A
C275        O280   1.264       .  A
O276        C282   1.264       .  A
O276       Cd279   2.485       .  S
C277        O285   1.266       .  A
C277       C1061   1.483       .  S
C278        O283   1.266       .  A
C278        O281   1.267       .  A
C278        C669   1.489       .  S
Cd279       O286   2.460       .  S
Cd279       O285   2.451       .  S
Cd279       O284   2.431       .  S
Cd279       O280   2.468       .  S
Cd279       O283   2.471       .  S
Cd279       O281   2.453       .  S
C282        O286   1.262       .  A
C282        C334   1.467       .  S
O287        C290   1.272   1_554  A
O287       Cd292   2.506   1_554  S
C288        O297   1.268       .  A
C288        O293   1.263   1_554  A
C288        C682   1.481       .  S
O289        C295   1.270       .  A
O289       Cd292   2.487       .  S
C290        O298   1.263       .  A
C290        C613   1.493       .  S
C291        O296   1.268       .  A
C291        O294   1.264       .  A
C291        C641   1.481       .  S
Cd292       O299   2.426       .  S
Cd292       O298   2.431       .  S
Cd292       O297   2.509   1_556  S
Cd292       O293   2.448       .  S
Cd292       O296   2.494       .  S
Cd292       O294   2.425       .  S
C295        O299   1.265       .  A
C295       C1158   1.477       .  S
O300        C303   1.268       .  A
O300       Cd305   2.473       .  S
C301        O310   1.262       .  A
C301        O306   1.264       .  A
C301        C697   1.480       .  S
O302        C308   1.265       .  A
O302       Cd305   2.504       .  S
C303        O311   1.265       .  A
C303        C585   1.473       .  S
C304        O309   1.263       .  A
C304        O307   1.268       .  A
C304        C654   1.474       .  S
Cd305       O312   2.454       .  S
Cd305       O311   2.412       .  S
Cd305       O310   2.435       .  S
Cd305       O306   2.467       .  S
Cd305       O309   2.438       .  S
Cd305       O307   2.470       .  S
C308        O312   1.262       .  A
C308       C1201   1.490   1_556  S
O313        C316   1.265       .  A
O313       Cd318   2.480       .  S
C314        O323   1.264       .  A
C314        O319   1.267       .  A
C314        C366   1.458       .  S
O315        C321   1.262       .  A
O315       Cd318   2.438       .  S
C316        O324   1.264       .  A
C316       C1606   1.485       .  S
C317        O322   1.266       .  A
C317        O320   1.263       .  A
Cd318       O325   2.479       .  S
Cd318       O324   2.429       .  S
Cd318       O323   2.413       .  S
Cd318       O319   2.474       .  S
Cd318       O322   2.502   1_655  S
Cd318       O320   2.436   1_655  S
C321        O325   1.266       .  A
C321        C557   1.475       .  S
O326        C329   1.266       .  A
O326       Cd331   2.470       .  S
C327        O336   1.267       .  A
C327        O332   1.264       .  A
C327       C1550   1.490       .  S
O328        C334   1.266       .  A
O328       Cd331   2.490   1_455  S
C329        O337   1.266       .  A
C329        C379   1.468       .  S
C330        O335   1.268       .  A
C330        O333   1.265       .  A
C330        C529   1.490       .  S
Cd331       O338   2.455   1_655  S
Cd331       O337   2.470       .  S
Cd331       O336   2.482       .  S
Cd331       O332   2.466       .  S
Cd331       O335   2.490       .  S
Cd331       O333   2.434       .  S
C334        O338   1.264       .  A
O339        C342   1.264       .  A
O339       Cd344   2.452       .  S
C340        O349   1.261       .  A
C340        O345   1.267       .  A
C340        C598   1.479       .  S
O341        C347   1.265       .  A
O341       Cd344   2.461       .  S
C342        O350   1.266       .  A
C342        C570   1.481       .  S
C343        O348   1.264       .  A
C343        O346   1.265       .  A
C343        C501   1.481       .  S
Cd344       O351   2.446       .  S
Cd344       O350   2.457       .  S
Cd344       O349   2.415       .  S
Cd344       O345   2.492       .  S
Cd344       O348   2.443       .  S
Cd344       O346   2.459       .  S
C347        O351   1.266       .  A
C347       C1718   1.482   1_556  S
O352        C355   1.267   1_556  A
O352       Cd357   2.480       .  S
C353        O362   1.267   1_556  A
C353        O358   1.262       .  A
C353        C626   1.487   1_556  S
O354        C360   1.267       .  A
O354       Cd357   2.506       .  S
C355        O363   1.266       .  A
C355        C542   1.495       .  S
C356        O361   1.270       .  A
C356        O359   1.265       .  A
C356        C514   1.484       .  S
Cd357       O364   2.447       .  S
Cd357       O363   2.488   1_556  S
Cd357       O362   2.492   1_556  S
Cd357       O358   2.441       .  S
Cd357       O361   2.472       .  S
Cd357       O359   2.421       .  S
C360        O364   1.265       .  A
C360       C1649   1.489       .  S
O365        C368   1.268       .  A
O365       Cd370   2.460       .  S
C366        O375   1.263       .  A
C366        O371   1.266       .  A
O367        C373   1.267       .  A
O367       Cd370   2.480   1_455  S
C368        O376   1.264       .  A
C368       C1298   1.483       .  S
C369        O374   1.267       .  A
C369        O372   1.265       .  A
C369        C473   1.479       .  S
Cd370       O377   2.410   1_655  S
Cd370       O376   2.419       .  S
Cd370       O375   2.413       .  S
Cd370       O371   2.480       .  S
Cd370       O374   2.471       .  S
Cd370       O372   2.432       .  S
C373        O377   1.263       .  A
O378        C381   1.267       .  A
O378       Cd383   2.485       .  S
C379        O388   1.264       .  A
C379        O384   1.266       .  A
O380        C386   1.266       .  A
O380       Cd383   2.512   1_455  S
C381        O389   1.266       .  A
C381       C1354   1.494       .  S
C382        O387   1.267       .  A
C382        O385   1.265       .  A
C382        C445   1.480       .  S
Cd383       O390   2.421   1_655  S
Cd383       O389   2.474       .  S
Cd383       O388   2.470       .  S
Cd383       O384   2.476       .  S
Cd383       O387   2.467       .  S
Cd383       O385   2.435       .  S
C386        O390   1.263       .  A
O391        C394   1.265       .  A
O391       Cd396   2.470       .  S
C392        O401   1.266       .  A
C392        O397   1.267       .  A
C392        C725   1.490       .  S
O393        C399   1.265       .  A
O393       Cd396   2.446       .  S
C394        O402   1.263       .  A
C394        C458   1.486       .  S
C395        O400   1.265       .  A
C395        O398   1.263       .  A
C395       C1410   1.484       .  S
Cd396       O403   2.452       .  S
Cd396       O402   2.463       .  S
Cd396       O401   2.456       .  S
Cd396       O397   2.478       .  S
Cd396       O400   2.487       .  S
Cd396       O398   2.433       .  S
C399        O403   1.265       .  A
C399        C417   1.481       .  S
O404        C407   1.264       .  A
O404       Cd409   2.439       .  S
C405        O414   1.268       .  A
C405        O410   1.263       .  A
C405        C486   1.485       .  S
O406        C412   1.265       .  A
O406       Cd409   2.446       .  S
C407        O415   1.267       .  A
C407        C766   1.484       .  S
C408        O413   1.266       .  A
C408        O411   1.265       .  A
C408        C430   1.484       .  S
Cd409       O416   2.473       .  S
Cd409       O415   2.485       .  S
Cd409       O414   2.491       .  S
Cd409       O410   2.430       .  S
Cd409       O413   2.459       .  S
Cd409       O411   2.452       .  S
C412        O416   1.267       .  A
C412       C1466   1.485       .  S
C417        C418   1.415       .  A
C417        C422   1.407       .  A
C418        C419   1.403       .  A
C418        N423   1.438       .  S
C419        C420   1.400       .  A
C419        H424   1.084       .  S
C420        C425   1.477       .  S
C420        C421   1.408       .  A
C421        C422   1.403       .  A
C421        N426   1.438       .  S
C422        H427   1.083       .  S
N423        H443   1.046       .  S
N423        H444   1.046       .  S
C425        C428   1.400       .  A
C425        C432   1.408       .  A
N426        H441   1.046       .  S
N426        H442   1.046       .  S
C428        C429   1.404       .  A
C428        H433   1.084       .  S
C429        C430   1.416       .  A
C429        N434   1.438       .  S
C430        C431   1.406       .  A
C431        C432   1.403       .  A
C431        H435   1.083       .  S
C432        N436   1.438       .  S
N434        H437   1.046       .  S
N434        H438   1.046       .  S
N436        H439   1.046       .  S
N436        H440   1.046       .  S
C445        C446   1.415       .  A
C445        C450   1.405       .  A
C446        C447   1.407       .  A
C446        N451   1.437       .  S
C447        C448   1.400       .  A
C447        H452   1.084       .  S
C448        C453   1.474       .  S
C448        C449   1.407       .  A
C449        C450   1.401       .  A
C449        N454   1.439       .  S
C450        H455   1.084       .  S
N451        H471   1.046       .  S
N451        H472   1.046       .  S
C453        C456   1.398       .  A
C453        C460   1.407       .  A
N454        H469   1.046       .  S
N454        H470   1.045       .  S
C456        C457   1.406       .  A
C456        H461   1.084       .  S
C457        C458   1.418       .  A
C457        N462   1.438       .  S
C458        C459   1.407       .  A
C459        C460   1.403       .  A
C459        H463   1.083       .  S
C460        N464   1.439       .  S
N462        H465   1.046       .  S
N462        H466   1.046       .  S
N464        H467   1.046       .  S
N464        H468   1.045       .  S
C473        C474   1.415       .  A
C473        C478   1.404       .  A
C474        C475   1.410       .  A
C474        N479   1.438       .  S
C475        C476   1.403       .  A
C475        H480   1.084       .  S
C476        C481   1.477       .  S
C476        C477   1.406       .  A
C477        C478   1.399       .  A
C477        N482   1.438       .  S
C478        H483   1.084       .  S
N479        H499   1.045       .  S
N479        H500   1.046       .  S
C481        C484   1.399       .  A
C481        C488   1.407       .  A
N482        H497   1.046       .  S
N482        H498   1.046       .  S
C484        C485   1.402       .  A
C484        H489   1.084       .  S
C485        C486   1.417       .  A
C485        N490   1.438       .  S
C486        C487   1.407       .  A
C487        C488   1.408       .  A
C487        H491   1.083       .  S
C488        N492   1.437       .  S
N490        H493   1.046       .  S
N490        H494   1.045       .  S
N492        H495   1.046       .  S
N492        H496   1.046       .  S
C501        C502   1.416       .  A
C501        C506   1.405       .  A
C502        C503   1.404       .  A
C502        N507   1.438       .  S
C503        C504   1.400       .  A
C503        H508   1.084       .  S
C504        C509   1.479       .  S
C504        C505   1.409       .  A
C505        C506   1.403       .  A
C505        N510   1.438       .  S
C506        H511   1.083       .  S
N507        H527   1.046       .  S
N507        H528   1.046       .  S
C509        C512   1.402       .  A
C509        C516   1.408       .  A
N510        H525   1.046       .  S
N510        H526   1.046       .  S
C512        C513   1.406       .  A
C512        H517   1.084       .  S
C513        C514   1.414       .  A
C513        N518   1.437       .  S
C514        C515   1.407       .  A
C515        C516   1.402       .  A
C515        H519   1.083   1_556  S
C516        N520   1.439   1_556  S
N518        H521   1.046       .  S
N518        H522   1.046       .  S
N520        H523   1.046       .  S
N520        H524   1.046       .  S
C529        C530   1.416       .  A
C529        C534   1.407       .  A
C530        C531   1.410       .  A
C530        N535   1.438       .  S
C531        C532   1.405       .  A
C531        H536   1.083       .  S
C532        C537   1.492       .  S
C532        C533   1.411       .  A
C533        C534   1.403       .  A
C533        N538   1.438       .  S
C534        H539   1.083       .  S
N535        H555   1.045       .  S
N535        H556   1.046       .  S
C537        C540   1.404       .  A
C537        C544   1.411       .  A
N538        H553   1.046       .  S
N538        H554   1.046       .  S
C540        C541   1.410       .  A
C540        H545   1.084       .  S
C541        C542   1.418       .  A
C541        N546   1.438       .  S
C542        C543   1.407       .  A
C543        C544   1.407       .  A
C543        H547   1.083   1_554  S
C544        N548   1.438       .  S
N546        H549   1.046       .  S
N546        H550   1.045       .  S
N548        H551   1.046       .  S
N548        H552   1.046       .  S
C557        C558   1.414       .  A
C557        C562   1.403       .  A
C558        C559   1.404       .  A
C558        N563   1.438       .  S
C559        C560   1.398       .  A
C559        H564   1.084       .  S
C560        C565   1.472       .  S
C560        C561   1.408       .  A
C561        C562   1.404       .  A
C561        N566   1.438       .  S
C562        H567   1.084       .  S
N563        H583   1.046       .  S
N563        H584   1.046       .  S
C565        C568   1.398       .  A
C565        C572   1.405       .  A
N566        H581   1.046       .  S
N566        H582   1.045       .  S
C568        C569   1.403       .  A
C568        H573   1.084       .  S
C569        C570   1.415       .  A
C569        N574   1.438       .  S
C570        C571   1.408       .  A
C571        C572   1.405       .  A
C571        H575   1.083       .  S
C572        N576   1.438       .  S
N574        H577   1.046       .  S
N574        H578   1.046       .  S
N576        H579   1.046       .  S
N576        H580   1.045       .  S
C585        C586   1.408       .  A
C585        C590   1.403       .  A
C586        C587   1.398       .  A
C586        N591   1.433       .  S
C587        C588   1.403       .  A
C587        H592   1.083       .  S
C588        C593   1.485       .  S
C588        C589   1.414       .  A
C589        C590   1.405       .  A
C589        N594   1.438       .  S
C590        H595   1.084       .  S
N591        H611   1.046       .  S
N591        H612   1.045       .  S
C593        C596   1.402       .  A
C593        C600   1.412       .  A
N594        H609   1.046       .  S
N594        H610   1.045       .  S
C596        C597   1.399       .  A
C596        H601   1.083       .  S
C597        C598   1.414       .  A
C597        N602   1.439       .  S
C598        C599   1.405       .  A
C599        C600   1.407       .  A
C599        H603   1.083       .  S
C600        N604   1.437       .  S
N602        H605   1.046       .  S
N602        H606   1.046       .  S
N604        H607   1.046       .  S
N604        H608   1.045       .  S
C613        C614   1.421       .  A
C613        C618   1.408   1_556  A
C614        C615   1.405       .  A
C614        N619   1.438       .  S
C615        C616   1.399       .  A
C615        H620   1.084       .  S
C616        C621   1.484   1_556  S
C616        C617   1.407   1_556  A
C617        C618   1.409       .  A
C617        N622   1.437       .  S
C618        H623   1.083       .  S
N619        H639   1.045       .  S
N619        H640   1.046       .  S
C621        C624   1.402       .  A
C621        C628   1.407   1_554  A
N622        H637   1.045       .  S
N622        H638   1.046       .  S
C624        C625   1.409       .  A
C624        H629   1.084       .  S
C625        C626   1.416       .  A
C625        N630   1.437       .  S
C626        C627   1.408   1_554  A
C627        C628   1.404       .  A
C627        H631   1.084       .  S
C628        N632   1.438       .  S
N630        H633   1.046       .  S
N630        H634   1.045       .  S
N632        H635   1.046       .  S
N632        H636   1.046   1_556  S
C641        C642   1.411       .  A
C641        C646   1.406       .  A
C642        C643   1.406       .  A
C642        N647   1.432       .  S
C643        C644   1.402       .  A
C643        H648   1.084       .  S
C644        C649   1.475       .  S
C644        C645   1.406       .  A
C645        C646   1.401       .  A
C645        N650   1.438       .  S
C646        H651   1.083       .  S
N647        H667   1.046       .  S
N647        H668   1.046       .  S
C649        C652   1.400       .  A
C649        C656   1.408       .  A
N650        H665   1.046   1_556  S
N650        H666   1.045   1_556  S
C652        C653   1.404       .  A
C652        H657   1.084       .  S
C653        C654   1.413       .  A
C653        N658   1.439       .  S
C654        C655   1.403       .  A
C655        C656   1.405       .  A
C655        H659   1.084       .  S
C656        N660   1.437       .  S
N658        H661   1.046       .  S
N658        H662   1.045       .  S
N660        H663   1.046       .  S
N660        H664   1.045       .  S
C669        C670   1.419       .  A
C669        C674   1.407       .  A
C670        C671   1.409       .  A
C670        N675   1.438       .  S
C671        C672   1.401       .  A
C671        H676   1.084       .  S
C672        C677   1.479       .  S
C672        C673   1.406       .  A
C673        C674   1.403       .  A
C673        N678   1.438       .  S
C674        H679   1.083       .  S
N675        H695   1.045       .  S
N675        H696   1.046       .  S
C677        C680   1.399       .  A
C677        C684   1.409       .  A
N678        H693   1.046       .  S
N678        H694   1.045       .  S
C680        C681   1.402       .  A
C680        H685   1.084       .  S
C681        C682   1.412       .  A
C681        N686   1.438       .  S
C682        C683   1.407       .  A
C683        C684   1.412       .  A
C683        H687   1.084       .  S
C684        N688   1.437       .  S
N686        H689   1.046   1_554  S
N686        H690   1.045   1_554  S
N688        H691   1.046       .  S
N688        H692   1.045       .  S
C697        C698   1.415       .  A
C697        C702   1.407       .  A
C698        C699   1.401       .  A
C698        N703   1.439       .  S
C699        C700   1.402       .  A
C699        H704   1.084       .  S
C700        C705   1.481       .  S
C700        C701   1.408       .  A
C701        C702   1.405       .  A
C701        N706   1.437       .  S
C702        H707   1.083       .  S
N703        H723   1.046       .  S
N703        H724   1.046       .  S
C705        C708   1.403       .  A
C705        C712   1.407       .  A
N706        H721   1.046       .  S
N706        H722   1.046       .  S
C708        C709   1.409       .  A
C708        H713   1.084       .  S
C709        C710   1.417       .  A
C709        N714   1.437       .  S
C710        C711   1.406       .  A
C711        C712   1.400       .  A
C711        H715   1.083       .  S
C712        N716   1.439       .  S
N714        H717   1.046       .  S
N714        H718   1.045       .  S
N716        H719   1.046       .  S
N716        H720   1.046       .  S
C725        C726   1.415       .  A
C725        C730   1.405       .  A
C726        C727   1.409       .  A
C726        N731   1.437       .  S
C727        C728   1.406       .  A
C727        H732   1.084       .  S
C728        C733   1.495       .  S
C728        C729   1.413       .  A
C729        C730   1.405       .  A
C729        N734   1.438       .  S
C730        H735   1.083       .  S
N731        H751   1.045       .  S
N731        H752   1.046       .  S
C733        C736   1.406       .  A
C733        C740   1.413       .  A
N734        H749   1.046       .  S
N734        H750   1.045       .  S
C736        C737   1.413       .  A
C736        H741   1.083       .  S
C737        C738   1.418       .  A
C737        N742   1.437       .  S
C738        C739   1.406       .  A
C739        C740   1.404       .  A
C739        H743   1.083       .  S
C740        N744   1.439       .  S
N742        H745   1.046       .  S
N742        H746   1.045       .  S
N744        H747   1.045       .  S
N744        H748   1.046       .  S
C753        C754   1.416       .  A
C753        C758   1.406       .  A
C754        C755   1.408       .  A
C754        N759   1.437       .  S
C755        C756   1.401       .  A
C755        H760   1.084       .  S
C756        C761   1.475       .  S
C756        C757   1.407       .  A
C757        C758   1.400       .  A
C757        N762   1.439       .  S
C758        H763   1.083       .  S
N759        H779   1.046       .  S
N759        H780   1.046       .  S
C761        C764   1.400       .  A
C761        C768   1.407       .  A
N762        H777   1.046       .  S
N762        H778   1.046       .  S
C764        C765   1.407       .  A
C764        H769   1.084       .  S
C765        C766   1.415       .  A
C765        N770   1.437       .  S
C766        C767   1.406       .  A
C767        C768   1.402       .  A
C767        H771   1.084       .  S
C768        N772   1.439       .  S
N770        H773   1.046       .  S
N770        H774   1.046       .  S
N772        H775   1.046       .  S
N772        H776   1.046       .  S
C781        C782   1.415       .  A
C781        C786   1.406       .  A
C782        C783   1.410       .  A
C782        N787   1.437       .  S
C783        C784   1.406       .  A
C783        H788   1.084       .  S
C784        C789   1.490       .  S
C784        C785   1.410       .  A
C785        C786   1.402       .  A
C785        N790   1.439       .  S
C786        H791   1.083       .  S
N787        H807   1.045       .  S
N787        H808   1.046       .  S
C789        C792   1.405       .  A
C789        C796   1.411       .  A
N790        H805   1.046       .  S
N790        H806   1.046       .  S
C792        C793   1.407       .  A
C792        H797   1.084       .  S
C793        C794   1.415       .  A
C793        N798   1.438       .  S
C794        C795   1.404       .  A
C795        C796   1.403       .  A
C795        H799   1.083       .  S
C796        N800   1.438       .  S
N798        H801   1.046       .  S
N798        H802   1.045       .  S
N800        H803   1.046       .  S
N800        H804   1.046       .  S
C809        C810   1.418       .  A
C809        C814   1.406       .  A
C810        C811   1.404       .  A
C810        N815   1.438       .  S
C811        C812   1.399       .  A
C811        H816   1.084       .  S
C812        C817   1.475       .  S
C812        C813   1.406       .  A
C813        C814   1.403       .  A
C813        N818   1.437       .  S
C814        H819   1.083       .  S
N815        H835   1.045       .  S
N815        H836   1.046       .  S
C817        C820   1.399       .  A
C817        C824   1.406       .  A
N818        H833   1.046       .  S
N818        H834   1.045       .  S
C820        C821   1.403       .  A
C820        H825   1.084       .  S
C821        C822   1.418       .  A
C821        N826   1.438       .  S
C822        C823   1.406       .  A
C823        C824   1.404       .  A
C823        H827   1.083       .  S
C824        N828   1.437       .  S
N826        H829   1.046       .  S
N826        H830   1.045       .  S
N828        H831   1.046       .  S
N828        H832   1.046       .  S
C837        C838   1.414       .  A
C837        C842   1.406       .  A
C838        C839   1.405       .  A
C838        N843   1.438       .  S
C839        C840   1.404       .  A
C839        H844   1.084       .  S
C840        C845   1.480       .  S
C840        C841   1.408       .  A
C841        C842   1.400       .  A
C841        N846   1.439       .  S
C842        H847   1.083       .  S
N843        H863   1.045       .  S
N843        H864   1.046       .  S
C845        C848   1.404       .  A
C845        C852   1.409       .  A
N846        H861   1.046       .  S
N846        H862   1.046       .  S
C848        C849   1.405       .  A
C848        H853   1.084       .  S
C849        C850   1.413       .  A
C849        N854   1.438       .  S
C850        C851   1.403       .  A
C851        C852   1.400       .  A
C851        H855   1.084       .  S
C852        N856   1.438       .  S
N854        H857   1.046       .  S
N854        H858   1.046       .  S
N856        H859   1.045       .  S
N856        H860   1.046       .  S
C865        C866   1.417       .  A
C865        C870   1.406       .  A
C866        C867   1.405       .  A
C866        N871   1.438       .  S
C867        C868   1.399       .  A
C867        H872   1.084       .  S
C868        C873   1.472       .  S
C868        C869   1.405       .  A
C869        C870   1.402       .  A
C869        N874   1.438       .  S
C870        H875   1.083       .  S
N871        H891   1.046       .  S
N871        H892   1.046       .  S
C873        C876   1.397       .  A
C873        C880   1.406       .  A
N874        H889   1.045       .  S
N874        H890   1.046       .  S
C876        C877   1.402       .  A
C876        H881   1.084       .  S
C877        C878   1.417       .  A
C877        N882   1.438       .  S
C878        C879   1.408       .  A
C879        C880   1.404       .  A
C879        H883   1.083       .  S
C880        N884   1.438       .  S
N882        H885   1.046       .  S
N882        H886   1.046       .  S
N884        H887   1.046       .  S
N884        H888   1.046       .  S
C893        C894   1.412       .  A
C893        C898   1.405       .  A
C894        C895   1.399       .  A
C894        N899   1.438       .  S
C895        C896   1.397       .  A
C895        H900   1.084       .  S
C896        C901   1.469       .  S
C896        C897   1.407       .  A
C897        C898   1.405       .  A
C897        N902   1.438       .  S
C898        H903   1.084       .  S
N899        H919   1.046       .  S
N899        H920   1.046       .  S
C901        C904   1.399       .  A
C901        C908   1.404       .  A
N902        H917   1.046       .  S
N902        H918   1.046       .  S
C904        C905   1.405       .  A
C904        H909   1.084       .  S
C905        C906   1.418       .  A
C905        N910   1.438       .  S
C906        C907   1.406       .  A
C907        C908   1.399       .  A
C907        H911   1.083       .  S
C908        N912   1.438       .  S
N910        H913   1.046       .  S
N910        H914   1.045       .  S
N912        H915   1.046       .  S
N912        H916   1.045       .  S
C921        C922   1.416       .  A
C921        C926   1.409       .  A
C922        C923   1.405   1_565  A
C922        N927   1.438       .  S
C923        C924   1.401       .  A
C923        H928   1.084       .  S
C924        C929   1.476       .  S
C924        C925   1.404       .  A
C925        C926   1.403   1_545  A
C925        N930   1.437       .  S
C926        H931   1.083       .  S
N927        H947   1.046       .  S
N927        H948   1.046       .  S
C929        C932   1.402       .  A
C929        C936   1.406       .  A
N930        H945   1.046       .  S
N930        H946   1.046       .  S
C932        C933   1.405       .  A
C932        H937   1.084       .  S
C933        C934   1.413       .  A
C933        N938   1.438       .  S
C934        C935   1.404       .  A
C935        C936   1.400       .  A
C935        H939   1.084       .  S
C936        N940   1.437       .  S
N938        H941   1.046       .  S
N938        H942   1.045       .  S
N940        H943   1.046       .  S
N940        H944   1.046       .  S
C949        C950   1.416       .  A
C949        C954   1.405       .  A
C950        C951   1.409       .  A
C950        N955   1.437       .  S
C951        C952   1.402       .  A
C951        H956   1.084       .  S
C952        C957   1.478       .  S
C952        C953   1.407       .  A
C953        C954   1.399       .  A
C953        N958   1.438       .  S
C954        H959   1.083       .  S
N955        H975   1.046       .  S
N955        H976   1.046       .  S
C957        C960   1.398       .  A
C957        C964   1.409       .  A
N958        H973   1.046       .  S
N958        H974   1.046       .  S
C960        C961   1.397       .  A
C960        H965   1.084       .  S
C961        C962   1.415       .  A
C961        N966   1.433       .  S
C962        C963   1.407       .  A
C963        C964   1.408       .  A
C963        H967   1.083       .  S
C964        N968   1.437       .  S
N966        H969   1.046       .  S
N966        H970   1.046       .  S
N968        H971   1.046       .  S
N968        H972   1.046       .  S
C977        C978   1.414       .  A
C977        C982   1.405       .  A
C978        C979   1.405       .  A
C978        N983   1.438       .  S
C979        C980   1.405       .  A
C979        H984   1.083       .  S
C980        C985   1.489       .  S
C980        C981   1.412       .  A
C981        C982   1.403       .  A
C981        N986   1.438       .  S
C982        H987   1.083       .  S
N983       H1003   1.046       .  S
N983       H1004   1.046       .  S
C985        C988   1.407       .  A
C985        C992   1.413       .  A
N986       H1001   1.046       .  S
N986       H1002   1.045       .  S
C988        C989   1.403       .  A
C988        H993   1.083       .  S
C989        C990   1.410       .  A
C989        N994   1.438       .  S
C990        C991   1.403       .  A
C991        C992   1.402       .  A
C991        H995   1.084       .  S
C992        N996   1.438       .  S
N994        H997   1.046       .  S
N994        H998   1.046       .  S
N996        H999   1.046       .  S
N996       H1000   1.045       .  S
C1005      C1006   1.415       .  A
C1005      C1010   1.405       .  A
C1006      C1007   1.405       .  A
C1006      N1011   1.438       .  S
C1007      C1008   1.401       .  A
C1007      H1012   1.084       .  S
C1008      C1013   1.479       .  S
C1008      C1009   1.408       .  A
C1009      C1010   1.403       .  A
C1009      N1014   1.438       .  S
C1010      H1015   1.083       .  S
N1011      H1031   1.046       .  S
N1011      H1032   1.046       .  S
C1013      C1016   1.401       .  A
C1013      C1020   1.407       .  A
N1014      H1029   1.046       .  S
N1014      H1030   1.046       .  S
C1016      C1017   1.405       .  A
C1016      H1021   1.084       .  S
C1017      C1018   1.416       .  A
C1017      N1022   1.438       .  S
C1018      C1019   1.407       .  A
C1019      C1020   1.404       .  A
C1019      H1023   1.083       .  S
C1020      N1024   1.438       .  S
N1022      H1025   1.046       .  S
N1022      H1026   1.045       .  S
N1024      H1027   1.046       .  S
N1024      H1028   1.046       .  S
C1033      C1034   1.414       .  A
C1033      C1038   1.408       .  A
C1034      C1035   1.406       .  A
C1034      N1039   1.437       .  S
C1035      C1036   1.399       .  A
C1035      H1040   1.084       .  S
C1036      C1041   1.472       .  S
C1036      C1037   1.406       .  A
C1037      C1038   1.403       .  A
C1037      N1042   1.439       .  S
C1038      H1043   1.083       .  S
N1039      H1059   1.046       .  S
N1039      H1060   1.046       .  S
C1041      C1044   1.397       .  A
C1041      C1048   1.406       .  A
N1042      H1057   1.046       .  S
N1042      H1058   1.045       .  S
C1044      C1045   1.401       .  A
C1044      H1049   1.084       .  S
C1045      C1046   1.417       .  A
C1045      N1050   1.438       .  S
C1046      C1047   1.408       .  A
C1047      C1048   1.406       .  A
C1047      H1051   1.083       .  S
C1048      N1052   1.437       .  S
N1050      H1053   1.046       .  S
N1050      H1054   1.046       .  S
N1052      H1055   1.046       .  S
N1052      H1056   1.045       .  S
C1061      C1062   1.418       .  A
C1061      C1066   1.405       .  A
C1062      C1063   1.405       .  A
C1062      N1067   1.438       .  S
C1063      C1064   1.400       .  A
C1063      H1068   1.084       .  S
C1064      C1069   1.478       .  S
C1064      C1065   1.409       .  A
C1065      C1066   1.401       .  A
C1065      N1070   1.438       .  S
C1066      H1071   1.083       .  S
N1067      H1087   1.046       .  S
N1067      H1088   1.046       .  S
C1069      C1072   1.401       .  A
C1069      C1076   1.409       .  A
N1070      H1085   1.046       .  S
N1070      H1086   1.046       .  S
C1072      C1073   1.401   1_554  A
C1072      H1077   1.084       .  S
C1073      C1074   1.414       .  A
C1073      N1078   1.438       .  S
C1074      C1075   1.405   1_556  A
C1075      C1076   1.405       .  A
C1075      H1079   1.083       .  S
C1076      N1080   1.438       .  S
N1078      H1081   1.046       .  S
N1078      H1082   1.046       .  S
N1080      H1083   1.046       .  S
N1080      H1084   1.046       .  S
C1089      C1090   1.417       .  A
C1089      C1094   1.407       .  A
C1090      C1091   1.407       .  A
C1090      N1095   1.437       .  S
C1091      C1092   1.399       .  A
C1091      H1096   1.084       .  S
C1092      C1097   1.477       .  S
C1092      C1093   1.406       .  A
C1093      C1094   1.404       .  A
C1093      N1098   1.438       .  S
C1094      H1099   1.083       .  S
N1095      H1115   1.045       .  S
N1095      H1116   1.046       .  S
C1097      C1100   1.398       .  A
C1097      C1104   1.406       .  A
N1098      H1113   1.046       .  S
N1098      H1114   1.046       .  S
C1100      C1101   1.403       .  A
C1100      H1105   1.084       .  S
C1101      C1102   1.418       .  A
C1101      N1106   1.438       .  S
C1102      C1103   1.409       .  A
C1103      C1104   1.407       .  A
C1103      H1107   1.083       .  S
C1104      N1108   1.437       .  S
N1106      H1109   1.046       .  S
N1106      H1110   1.046       .  S
N1108      H1111   1.046       .  S
N1108      H1112   1.046       .  S
C1117      C1118   1.415       .  A
C1117      C1122   1.405       .  A
C1118      C1119   1.403   1_565  A
C1118      N1123   1.438       .  S
C1119      C1120   1.402       .  A
C1119      H1124   1.083       .  S
C1120      C1125   1.489       .  S
C1120      C1121   1.413   1_545  A
C1121      C1122   1.407       .  A
C1121      N1126   1.438   1_565  S
C1122      H1127   1.084       .  S
N1123      H1143   1.046       .  S
N1123      H1144   1.046       .  S
C1125      C1128   1.401       .  A
C1125      C1132   1.412       .  A
N1126      H1141   1.046   1_546  S
N1126      H1142   1.045       .  S
C1128      C1129   1.404   1_556  A
C1128      H1133   1.083   1_556  S
C1129      C1130   1.417   1_554  A
C1129      N1134   1.438       .  S
C1130      C1131   1.407       .  A
C1131      C1132   1.408       .  A
C1131      H1135   1.083       .  S
C1132      N1136   1.438       .  S
N1134      H1137   1.046       .  S
N1134      H1138   1.046       .  S
N1136      H1139   1.046       .  S
N1136      H1140   1.046       .  S
C1145      C1146   1.416       .  A
C1145      C1150   1.406       .  A
C1146      C1147   1.407       .  A
C1146      N1151   1.438       .  S
C1147      C1148   1.402       .  A
C1147      H1152   1.084       .  S
C1148      C1153   1.482       .  S
C1148      C1149   1.408       .  A
C1149      C1150   1.403       .  A
C1149      N1154   1.438       .  S
C1150      H1155   1.083       .  S
N1151      H1171   1.046       .  S
N1151      H1172   1.046       .  S
C1153      C1156   1.401       .  A
C1153      C1160   1.411       .  A
N1154      H1169   1.046       .  S
N1154      H1170   1.046       .  S
C1156      C1157   1.403       .  A
C1156      H1161   1.084       .  S
C1157      C1158   1.413       .  A
C1157      N1162   1.439       .  S
C1158      C1159   1.403       .  A
C1159      C1160   1.409       .  A
C1159      H1163   1.084       .  S
C1160      N1164   1.437       .  S
N1162      H1165   1.046       .  S
N1162      H1166   1.046       .  S
N1164      H1167   1.046       .  S
N1164      H1168   1.046       .  S
C1173      C1174   1.418       .  A
C1173      C1178   1.407       .  A
C1174      C1175   1.402       .  A
C1174      N1179   1.438       .  S
C1175      C1176   1.400       .  A
C1175      H1180   1.084       .  S
C1176      C1181   1.485       .  S
C1176      C1177   1.410       .  A
C1177      C1178   1.408       .  A
C1177      N1182   1.437       .  S
C1178      H1183   1.083       .  S
N1179      H1199   1.046       .  S
N1179      H1200   1.046       .  S
C1181      C1184   1.402       .  A
C1181      C1188   1.410       .  A
N1182      H1197   1.046       .  S
N1182      H1198   1.046       .  S
C1184      C1185   1.404       .  A
C1184      H1189   1.084       .  S
C1185      C1186   1.416       .  A
C1185      N1190   1.439       .  S
C1186      C1187   1.404       .  A
C1187      C1188   1.406       .  A
C1187      H1191   1.084       .  S
C1188      N1192   1.438       .  S
N1190      H1193   1.046       .  S
N1190      H1194   1.046       .  S
N1192      H1195   1.046       .  S
N1192      H1196   1.046       .  S
C1201      C1202   1.417       .  A
C1201      C1206   1.407       .  A
C1202      C1203   1.410       .  A
C1202      N1207   1.437       .  S
C1203      C1204   1.402       .  A
C1203      H1208   1.084       .  S
C1204      C1209   1.483       .  S
C1204      C1205   1.407       .  A
C1205      C1206   1.403       .  A
C1205      N1210   1.438       .  S
C1206      H1211   1.083   1_554  S
N1207      H1227   1.046       .  S
N1207      H1228   1.046       .  S
C1209      C1212   1.400       .  A
C1209      C1216   1.409       .  A
N1210      H1225   1.046       .  S
N1210      H1226   1.046       .  S
C1212      C1213   1.400       .  A
C1212      H1217   1.084       .  S
C1213      C1214   1.413       .  A
C1213      N1218   1.433       .  S
C1214      C1215   1.409       .  A
C1215      C1216   1.410       .  A
C1215      H1219   1.083       .  S
C1216      N1220   1.437       .  S
N1218      H1221   1.046       .  S
N1218      H1222   1.046       .  S
N1220      H1223   1.046       .  S
N1220      H1224   1.046       .  S
C1229      C1230   1.416       .  A
C1229      C1234   1.405       .  A
C1230      C1231   1.404       .  A
C1230      N1235   1.438       .  S
C1231      C1232   1.401       .  A
C1231      H1236   1.084       .  S
C1232      C1237   1.480       .  S
C1232      C1233   1.408       .  A
C1233      C1234   1.405       .  A
C1233      N1238   1.437       .  S
C1234      H1239   1.084       .  S
N1235      H1255   1.045   1_554  S
N1235      H1256   1.046   1_554  S
C1237      C1240   1.402       .  A
C1237      C1244   1.407       .  A
N1238      H1253   1.046       .  S
N1238      H1254   1.046       .  S
C1240      C1241   1.405       .  A
C1240      H1245   1.084       .  S
C1241      C1242   1.416       .  A
C1241      N1246   1.438       .  S
C1242      C1243   1.406       .  A
C1243      C1244   1.402       .  A
C1243      H1247   1.083       .  S
C1244      N1248   1.438       .  S
N1246      H1249   1.046       .  S
N1246      H1250   1.046       .  S
N1248      H1251   1.046       .  S
N1248      H1252   1.046       .  S
C1257      C1258   1.409   1_655  A
C1257      C1262   1.403   1_655  A
C1258      C1259   1.398       .  A
C1258      N1263   1.433   1_455  S
C1259      C1260   1.402       .  A
C1259      H1264   1.084       .  S
C1260      C1265   1.483       .  S
C1260      C1261   1.412       .  A
C1261      C1262   1.407       .  A
C1261      N1266   1.437       .  S
C1262      H1267   1.083   1_455  S
N1263      H1283   1.046   1_655  S
N1263      H1284   1.046   1_655  S
C1265      C1268   1.402       .  A
C1265      C1272   1.411       .  A
N1266      H1281   1.046       .  S
N1266      H1282   1.046       .  S
C1268      C1269   1.401       .  A
C1268      H1273   1.084       .  S
C1269      C1270   1.411       .  A
C1269      N1274   1.438       .  S
C1270      C1271   1.405       .  A
C1271      C1272   1.406       .  A
C1271      H1275   1.083       .  S
C1272      N1276   1.437       .  S
N1274      H1277   1.046       .  S
N1274      H1278   1.046       .  S
N1276      H1279   1.046       .  S
N1276      H1280   1.045       .  S
C1285      C1286   1.417       .  A
C1285      C1290   1.407       .  A
C1286      C1287   1.406       .  A
C1286      N1291   1.437       .  S
C1287      C1288   1.401       .  A
C1287      H1292   1.084       .  S
C1288      C1293   1.479       .  S
C1288      C1289   1.407       .  A
C1289      C1290   1.402       .  A
C1289      N1294   1.438       .  S
C1290      H1295   1.083       .  S
N1291      H1311   1.045       .  S
N1291      H1312   1.046       .  S
C1293      C1296   1.400       .  A
C1293      C1300   1.408       .  A
N1294      H1309   1.046       .  S
N1294      H1310   1.046       .  S
C1296      C1297   1.402       .  A
C1296      H1301   1.084       .  S
C1297      C1298   1.418       .  A
C1297      N1302   1.438       .  S
C1298      C1299   1.407       .  A
C1299      C1300   1.404       .  A
C1299      H1303   1.083       .  S
C1300      N1304   1.438       .  S
N1302      H1305   1.046       .  S
N1302      H1306   1.046       .  S
N1304      H1307   1.046       .  S
N1304      H1308   1.046       .  S
C1313      C1314   1.414   1_655  A
C1313      C1318   1.405       .  A
C1314      C1315   1.405       .  A
C1314      N1319   1.438   1_455  S
C1315      C1316   1.403       .  A
C1315      H1320   1.083       .  S
C1316      C1321   1.490       .  S
C1316      C1317   1.412       .  A
C1317      C1318   1.406   1_455  A
C1317      N1322   1.438       .  S
C1318      H1323   1.084       .  S
N1319      H1339   1.045       .  S
N1319      H1340   1.046   1_655  S
C1321      C1324   1.404       .  A
C1321      C1328   1.413       .  A
N1322      H1337   1.046       .  S
N1322      H1338   1.045       .  S
C1324      C1325   1.400       .  A
C1324      H1329   1.083       .  S
C1325      C1326   1.410       .  A
C1325      N1330   1.438       .  S
C1326      C1327   1.406       .  A
C1327      C1328   1.408       .  A
C1327      H1331   1.084       .  S
C1328      N1332   1.437       .  S
N1330      H1333   1.046       .  S
N1330      H1334   1.046       .  S
N1332      H1335   1.046       .  S
N1332      H1336   1.045       .  S
C1341      C1342   1.419       .  A
C1341      C1346   1.408       .  A
C1342      C1343   1.412       .  A
C1342      N1347   1.437       .  S
C1343      C1344   1.402       .  A
C1343      H1348   1.084       .  S
C1344      C1349   1.484       .  S
C1344      C1345   1.406       .  A
C1345      C1346   1.405       .  A
C1345      N1350   1.438       .  S
C1346      H1351   1.083       .  S
N1347      H1367   1.046       .  S
N1347      H1368   1.046       .  S
C1349      C1352   1.400       .  A
C1349      C1356   1.407       .  A
N1350      H1365   1.045       .  S
N1350      H1366   1.045       .  S
C1352      C1353   1.407       .  A
C1352      H1357   1.084       .  S
C1353      C1354   1.419       .  A
C1353      N1358   1.438       .  S
C1354      C1355   1.410       .  A
C1355      C1356   1.409       .  A
C1355      H1359   1.083       .  S
C1356      N1360   1.437       .  S
N1358      H1361   1.046       .  S
N1358      H1362   1.045   1_655  S
N1360      H1363   1.046       .  S
N1360      H1364   1.045       .  S
C1369      C1370   1.415       .  A
C1369      C1374   1.406       .  A
C1370      C1371   1.406       .  A
C1370      N1375   1.438       .  S
C1371      C1372   1.405       .  A
C1371      H1376   1.083       .  S
C1372      C1377   1.495       .  S
C1372      C1373   1.414       .  A
C1373      C1374   1.406       .  A
C1373      N1378   1.438       .  S
C1374      H1379   1.083       .  S
N1375      H1395   1.046       .  S
N1375      H1396   1.046       .  S
C1377      C1380   1.406       .  A
C1377      C1384   1.414       .  A
N1378      H1393   1.046       .  S
N1378      H1394   1.046       .  S
C1380      C1381   1.408   1_545  A
C1380      H1385   1.083       .  S
C1381      C1382   1.413       .  A
C1381      N1386   1.438       .  S
C1382      C1383   1.404       .  A
C1383      C1384   1.405   1_565  A
C1383      H1387   1.083       .  S
C1384      N1388   1.438       .  S
N1386      H1389   1.046       .  S
N1386      H1390   1.046       .  S
N1388      H1391   1.046       .  S
N1388      H1392   1.045       .  S
C1397      C1398   1.415       .  A
C1397      C1402   1.406       .  A
C1398      C1399   1.404       .  A
C1398      N1403   1.438       .  S
C1399      C1400   1.403       .  A
C1399      H1404   1.084       .  S
C1400      C1405   1.481       .  S
C1400      C1401   1.408       .  A
C1401      C1402   1.403       .  A
C1401      N1406   1.438       .  S
C1402      H1407   1.084       .  S
N1403      H1423   1.045       .  S
N1403      H1424   1.046       .  S
C1405      C1408   1.403       .  A
C1405      C1412   1.407       .  A
N1406      H1421   1.046       .  S
N1406      H1422   1.046       .  S
C1408      C1409   1.406       .  A
C1408      H1413   1.084       .  S
C1409      C1410   1.415       .  A
C1409      N1414   1.438       .  S
C1410      C1411   1.407       .  A
C1411      C1412   1.401       .  A
C1411      H1415   1.083       .  S
C1412      N1416   1.438       .  S
N1414      H1417   1.046       .  S
N1414      H1418   1.046       .  S
N1416      H1419   1.046       .  S
N1416      H1420   1.046       .  S
C1425      C1426   1.416       .  A
C1425      C1430   1.405       .  A
C1426      C1427   1.403       .  A
C1426      N1431   1.438       .  S
C1427      C1428   1.402       .  A
C1427      H1432   1.083       .  S
C1428      C1433   1.487       .  S
C1428      C1429   1.412       .  A
C1429      C1430   1.406       .  A
C1429      N1434   1.438       .  S
C1430      H1435   1.083       .  S
N1431      H1451   1.045       .  S
N1431      H1452   1.046       .  S
C1433      C1436   1.402       .  A
C1433      C1440   1.412       .  A
N1434      H1449   1.046       .  S
N1434      H1450   1.045       .  S
C1436      C1437   1.403       .  A
C1436      H1441   1.083       .  S
C1437      C1438   1.416       .  A
C1437      N1442   1.438       .  S
C1438      C1439   1.407       .  A
C1439      C1440   1.406       .  A
C1439      H1443   1.083       .  S
C1440      N1444   1.438       .  S
N1442      H1445   1.046       .  S
N1442      H1446   1.046       .  S
N1444      H1447   1.046       .  S
N1444      H1448   1.046       .  S
C1453      C1454   1.415       .  A
C1453      C1458   1.407       .  A
C1454      C1455   1.406       .  A
C1454      N1459   1.437       .  S
C1455      C1456   1.402       .  A
C1455      H1460   1.084       .  S
C1456      C1461   1.487       .  S
C1456      C1457   1.410       .  A
C1457      C1458   1.405       .  A
C1457      N1462   1.438       .  S
C1458      H1463   1.084       .  S
N1459      H1479   1.045       .  S
N1459      H1480   1.046       .  S
C1461      C1464   1.402       .  A
C1461      C1468   1.411       .  A
N1462      H1477   1.046       .  S
N1462      H1478   1.046       .  S
C1464      C1465   1.405       .  A
C1464      H1469   1.084       .  S
C1465      C1466   1.415       .  A
C1465      N1470   1.438       .  S
C1466      C1467   1.406       .  A
C1467      C1468   1.406       .  A
C1467      H1471   1.083       .  S
C1468      N1472   1.438       .  S
N1470      H1473   1.046       .  S
N1470      H1474   1.046       .  S
N1472      H1475   1.046       .  S
N1472      H1476   1.045       .  S
C1481      C1482   1.414       .  A
C1481      C1486   1.404       .  A
C1482      C1483   1.407       .  A
C1482      N1487   1.438       .  S
C1483      C1484   1.404       .  A
C1483      H1488   1.084       .  S
C1484      C1489   1.488       .  S
C1484      C1485   1.412       .  A
C1485      C1486   1.403       .  A
C1485      N1490   1.438       .  S
C1486      H1491   1.084       .  S
N1487      H1507   1.046       .  S
N1487      H1508   1.046       .  S
C1489      C1492   1.404       .  A
C1489      C1496   1.410       .  A
N1490      H1505   1.046       .  S
N1490      H1506   1.046       .  S
C1492      C1493   1.408       .  A
C1492      H1497   1.084       .  S
C1493      C1494   1.417       .  A
C1493      N1498   1.438       .  S
C1494      C1495   1.407       .  A
C1495      C1496   1.402       .  A
C1495      H1499   1.083       .  S
C1496      N1500   1.438       .  S
N1498      H1501   1.046       .  S
N1498      H1502   1.045       .  S
N1500      H1503   1.046       .  S
N1500      H1504   1.046       .  S
C1509      C1510   1.416       .  A
C1509      C1514   1.404       .  A
C1510      C1511   1.408   1_655  A
C1510      N1515   1.438       .  S
C1511      C1512   1.403       .  A
C1511      H1516   1.084       .  S
C1512      C1517   1.484       .  S
C1512      C1513   1.410       .  A
C1513      C1514   1.401   1_455  A
C1513      N1518   1.439       .  S
C1514      H1519   1.084       .  S
N1515      H1535   1.045       .  S
N1515      H1536   1.046       .  S
C1517      C1520   1.401       .  A
C1517      C1524   1.410       .  A
N1518      H1533   1.046       .  S
N1518      H1534   1.046       .  S
C1520      C1521   1.405       .  A
C1520      H1525   1.084       .  S
C1521      C1522   1.416       .  A
C1521      N1526   1.437       .  S
C1522      C1523   1.407       .  A
C1523      C1524   1.407       .  A
C1523      H1527   1.083       .  S
C1524      N1528   1.439       .  S
N1526      H1529   1.046       .  S
N1526      H1530   1.046       .  S
N1528      H1531   1.046       .  S
N1528      H1532   1.046       .  S
C1537      C1538   1.416   1_556  A
C1537      C1542   1.405       .  A
C1538      C1539   1.411       .  A
C1538      N1543   1.438       .  S
C1539      C1540   1.404       .  A
C1539      H1544   1.084       .  S
C1540      C1545   1.485       .  S
C1540      C1541   1.408       .  A
C1541      C1542   1.401   1_554  A
C1541      N1546   1.438       .  S
C1542      H1547   1.083       .  S
N1543      H1563   1.046   1_554  S
N1543      H1564   1.046       .  S
C1545      C1548   1.402       .  A
C1545      C1552   1.408       .  A
N1546      H1561   1.046   1_554  S
N1546      H1562   1.046       .  S
C1548      C1549   1.407       .  A
C1548      H1553   1.084       .  S
C1549      C1550   1.418       .  A
C1549      N1554   1.438       .  S
C1550      C1551   1.407       .  A
C1551      C1552   1.407       .  A
C1551      H1555   1.083       .  S
C1552      N1556   1.438       .  S
N1554      H1557   1.046       .  S
N1554      H1558   1.045       .  S
N1556      H1559   1.045       .  S
N1556      H1560   1.046       .  S
C1565      C1566   1.415       .  A
C1565      C1570   1.406       .  A
C1566      C1567   1.410   1_655  A
C1566      N1571   1.437       .  S
C1567      C1568   1.404       .  A
C1567      H1572   1.083       .  S
C1568      C1573   1.492       .  S
C1568      C1569   1.412       .  A
C1569      C1570   1.404   1_455  A
C1569      N1574   1.438       .  S
C1570      H1575   1.083       .  S
N1571      H1591   1.046       .  S
N1571      H1592   1.046       .  S
C1573      C1576   1.402       .  A
C1573      C1580   1.413       .  A
N1574      H1589   1.046       .  S
N1574      H1590   1.045       .  S
C1576      C1577   1.400       .  A
C1576      H1581   1.084       .  S
C1577      C1578   1.414       .  A
C1577      N1582   1.439   1_554  S
C1578      C1579   1.409       .  A
C1579      C1580   1.415       .  A
C1579      H1583   1.083       .  S
C1580      N1584   1.437       .  S
N1582      H1585   1.046       .  S
N1582      H1586   1.046       .  S
N1584      H1587   1.046       .  S
N1584      H1588   1.046       .  S
C1593      C1594   1.414       .  A
C1593      C1598   1.408       .  A
C1594      C1595   1.402       .  A
C1594      N1599   1.432       .  S
C1595      C1596   1.402       .  A
C1595      H1600   1.084       .  S
C1596      C1601   1.484       .  S
C1596      C1597   1.410       .  A
C1597      C1598   1.407       .  A
C1597      N1602   1.438       .  S
C1598      H1603   1.083       .  S
N1599      H1619   1.046       .  S
N1599      H1620   1.046       .  S
C1601      C1604   1.403       .  A
C1601      C1608   1.409       .  A
N1602      H1617   1.046       .  S
N1602      H1618   1.046       .  S
C1604      C1605   1.408       .  A
C1604      H1609   1.084       .  S
C1605      C1606   1.417       .  A
C1605      N1610   1.438       .  S
C1606      C1607   1.406       .  A
C1607      C1608   1.400       .  A
C1607      H1611   1.083       .  S
C1608      N1612   1.438       .  S
N1610      H1613   1.046       .  S
N1610      H1614   1.046       .  S
N1612      H1615   1.046       .  S
N1612      H1616   1.046       .  S
C1621      C1622   1.417       .  A
C1621      C1626   1.406       .  A
C1622      C1623   1.405       .  A
C1622      N1627   1.437   1_556  S
C1623      C1624   1.400       .  A
C1623      H1628   1.084   1_556  S
C1624      C1629   1.479       .  S
C1624      C1625   1.408       .  A
C1625      C1626   1.405       .  A
C1625      N1630   1.438       .  S
C1626      H1631   1.083       .  S
N1627      H1647   1.046       .  S
N1627      H1648   1.046       .  S
C1629      C1632   1.401   1_545  A
C1629      C1636   1.410   1_545  A
N1630      H1645   1.046       .  S
N1630      H1646   1.045       .  S
C1632      C1633   1.404       .  A
C1632      H1637   1.084   1_565  S
C1633      C1634   1.414       .  A
C1633      N1638   1.438       .  S
C1634      C1635   1.404       .  A
C1635      C1636   1.403       .  A
C1635      H1639   1.084       .  S
C1636      N1640   1.438   1_556  S
N1638      H1641   1.046       .  S
N1638      H1642   1.046       .  S
N1640      H1643   1.046       .  S
N1640      H1644   1.046   1_564  S
C1649      C1650   1.417       .  A
C1649      C1654   1.406       .  A
C1650      C1651   1.410       .  A
C1650      N1655   1.437       .  S
C1651      C1652   1.403       .  A
C1651      H1656   1.084       .  S
C1652      C1657   1.484       .  S
C1652      C1653   1.408       .  A
C1653      C1654   1.403       .  A
C1653      N1658   1.438       .  S
C1654      H1659   1.083       .  S
N1655      H1675   1.045       .  S
N1655      H1676   1.046       .  S
C1657      C1660   1.402       .  A
C1657      C1664   1.408       .  A
N1658      H1673   1.046       .  S
N1658      H1674   1.046       .  S
C1660      C1661   1.405       .  A
C1660      H1665   1.084       .  S
C1661      C1662   1.416       .  A
C1661      N1666   1.438       .  S
C1662      C1663   1.408       .  A
C1663      C1664   1.407       .  A
C1663      H1667   1.083       .  S
C1664      N1668   1.437       .  S
N1666      H1669   1.046       .  S
N1666      H1670   1.046       .  S
N1668      H1671   1.046       .  S
N1668      H1672   1.046       .  S
C1677      C1678   1.417       .  A
C1677      C1682   1.407       .  A
C1678      C1679   1.405       .  A
C1678      N1683   1.438       .  S
C1679      C1680   1.402       .  A
C1679      H1684   1.084       .  S
C1680      C1685   1.487       .  S
C1680      C1681   1.410       .  A
C1681      C1682   1.406       .  A
C1681      N1686   1.438       .  S
C1682      H1687   1.083       .  S
N1683      H1703   1.045       .  S
N1683      H1704   1.046       .  S
C1685      C1688   1.405       .  A
C1685      C1692   1.412       .  A
N1686      H1701   1.046       .  S
N1686      H1702   1.046       .  S
C1688      C1689   1.408       .  A
C1688      H1693   1.084       .  S
C1689      C1690   1.412       .  A
C1689      N1694   1.438       .  S
C1690      C1691   1.401       .  A
C1691      C1692   1.402       .  A
C1691      H1695   1.084       .  S
C1692      N1696   1.438       .  S
N1694      H1697   1.046       .  S
N1694      H1698   1.045       .  S
N1696      H1699   1.046       .  S
N1696      H1700   1.046       .  S
C1705      C1706   1.417       .  A
C1705      C1710   1.408       .  A
C1706      C1707   1.404       .  A
C1706      N1711   1.438       .  S
C1707      C1708   1.399       .  A
C1707      H1712   1.084       .  S
C1708      C1713   1.474       .  S
C1708      C1709   1.404       .  A
C1709      C1710   1.403       .  A
C1709      N1714   1.437       .  S
C1710      H1715   1.083       .  S
N1711      H1731   1.045       .  S
N1711      H1732   1.046       .  S
C1713      C1716   1.399       .  A
C1713      C1720   1.405       .  A
N1714      H1729   1.046       .  S
N1714      H1730   1.046       .  S
C1716      C1717   1.404       .  A
C1716      H1721   1.084       .  S
C1717      C1718   1.417       .  A
C1717      N1722   1.438       .  S
C1718      C1719   1.407       .  A
C1719      C1720   1.403       .  A
C1719      H1723   1.084   1_554  S
C1720      N1724   1.437       .  S
N1722      H1725   1.046       .  S
N1722      H1726   1.045       .  S
N1724      H1727   1.046       .  S
N1724      H1728   1.046       .  S
C1733      C1734   1.416       .  A
C1733      C1738   1.408       .  A
C1734      C1735   1.408       .  A
C1734      N1739   1.437       .  S
C1735      C1736   1.404       .  A
C1735      H1740   1.084       .  S
C1736      C1741   1.487       .  S
C1736      C1737   1.408       .  A
C1737      C1738   1.405       .  A
C1737      N1742   1.438       .  S
C1738      H1743   1.083       .  S
N1739      H1759   1.046       .  S
N1739      H1760   1.046       .  S
C1741      C1744   1.404       .  A
C1741      C1748   1.409       .  A
N1742      H1757   1.046       .  S
N1742      H1758   1.046       .  S
C1744      C1745   1.407       .  A
C1744      H1749   1.084       .  S
C1745      C1746   1.415       .  A
C1745      N1750   1.438       .  S
C1746      C1747   1.406       .  A
C1747      C1748   1.405       .  A
C1747      H1751   1.084       .  S
C1748      N1752   1.437       .  S
N1750      H1753   1.046       .  S
N1750      H1754   1.045       .  S
N1752      H1755   1.046       .  S
N1752      H1756   1.046       .  S
