geometry optimzed in LAMMPS
_audit_creation_date              2020-12-01 
_audit_creation_method            'lammps2cif' 
_symmetry_space_group_name_H-M    'P1' 
_symmetry_Int_Tables_number       1 
_symmetry_cell_setting            triclinic 
loop_ 
_symmetry_equiv_pos_as_xyz 
  x,y,z 
_cell_length_a                    58.46155042 
_cell_length_b                    58.33651164613872 
_cell_length_c                    58.486503664474036 
_cell_angle_alpha                 90.0136502112912 
_cell_angle_beta                  90.07853755320407 
_cell_angle_gamma                 89.9663077606758 
loop_ 
_atom_site_label 
_atom_site_type_symbol 
_atom_site_fract_x 
_atom_site_fract_y 
_atom_site_fract_z 
_atom_site_charge 
N1          N  0.79830612  0.33369726  0.46428386    -0.27200
N2          N  0.81220957  0.34513723  0.45069238    -0.35100
C3          C  0.80577604  0.34111101  0.42880438     0.01100
C4          C  0.78683997  0.32650831  0.42894116     0.07100
C5          C  0.78284116  0.32228048  0.45183681    -0.06000
H6          H  0.81423515  0.34819637  0.41396896     0.07800
H7          H  0.76999267  0.31116321  0.45914043     0.09000
Cu8        Cu  0.83903666  0.36472522  0.46469721     0.44200
Cu9        Cu  0.80094695  0.33260881  0.49917719     0.42000
Cu10       Cu  0.84401508  0.36146628  0.52937952     0.43900
N11         N  0.86343554  0.38190336  0.48500689    -0.34600
N12         N  0.86496069  0.38076982  0.50763680    -0.28900
C13         C  0.88238352  0.39414964  0.51465340    -0.05000
C14         C  0.89242795  0.40416157  0.49573233     0.07300
C15         C  0.87998134  0.39602812  0.47724648     0.01100
H16         H  0.88734797  0.39646178  0.53233271     0.08700
H17         H  0.88263569  0.40022577  0.45943018     0.07800
N18         N  0.82040556  0.34019853  0.54584251    -0.36100
N19         N  0.80440783  0.32969590  0.53389530    -0.28200
C20         C  0.79174713  0.31655354  0.54772065    -0.03500
C21         C  0.80004771  0.31861048  0.56979551     0.05100
C22         C  0.81826835  0.33393939  0.56797647     0.03200
H23         H  0.77758384  0.30619746  0.54186522     0.08300
H24         H  0.82943224  0.33971027  0.58156572     0.07200
N25         N  0.48103249  0.80094106  0.38774996    -0.27200
N26         N  0.49418927  0.81798171  0.39462784    -0.35100
C27         C  0.51593567  0.81331209  0.38831061     0.01100
C28         C  0.51627364  0.79226324  0.37695396     0.07100
C29         C  0.49371693  0.78511563  0.37706396    -0.06000
H30         H  0.53029251  0.82459527  0.39136122     0.07800
H31         H  0.48661919  0.77005286  0.36895189     0.09000
Cu32       Cu  0.48012972  0.84660327  0.41132898     0.44200
Cu33       Cu  0.44601896  0.80091132  0.38971037     0.42000
Cu34       Cu  0.41615536  0.85009882  0.40851763     0.43900
N35         N  0.45991762  0.87084503  0.42869251    -0.34600
N36         N  0.43726835  0.87195348  0.42767123    -0.28900
C37         C  0.42996027  0.88845141  0.44205772    -0.05000
C38         C  0.44873174  0.89824517  0.45270431     0.07300
C39         C  0.46743424  0.88670122  0.44375036     0.01100
H40         H  0.41216715  0.89257358  0.44504671     0.08700
H41         H  0.48518649  0.88914090  0.44839722     0.07800
N42         N  0.40001771  0.82341761  0.39074932    -0.36100
N43         N  0.41154107  0.80496140  0.38467487    -0.28200
C44         C  0.39777495  0.79059110  0.37326713    -0.03500
C45         C  0.37618202  0.80024749  0.37191187     0.05100
C46         C  0.37826968  0.82119935  0.38326137     0.03200
H47         H  0.40350640  0.77460047  0.36591061     0.08300
H48         H  0.36510699  0.83398986  0.38571170     0.07200
N49         N  0.28823231  0.42068633  0.88520492    -0.27200
N50         N  0.30665665  0.40845252  0.88996392    -0.35100
C51         C  0.30341302  0.38695216  0.88193639     0.01100
C52         C  0.28181103  0.38575773  0.87186747     0.07100
C53         C  0.27286324  0.40755098  0.87435494    -0.06000
H54         H  0.31584465  0.37326812  0.88325900     0.07800
H55         H  0.25669561  0.41382274  0.86787153     0.09000
Cu56       Cu  0.33477893  0.42299982  0.90712479     0.44200
Cu57       Cu  0.28526898  0.45543160  0.89040577     0.42000
Cu58       Cu  0.33264594  0.48667178  0.91137378     0.43900
N59         N  0.35801692  0.44322357  0.92585836    -0.34600
N60         N  0.35706791  0.46589120  0.92731093    -0.28900
C61         C  0.37374371  0.47322691  0.94144651    -0.05000
C62         C  0.38582704  0.45443024  0.94937779     0.07300
C63         C  0.37538455  0.43569396  0.93913018     0.01100
H64         H  0.37651114  0.49097170  0.94605910     0.08700
H65         H  0.37976499  0.41783675  0.94155825     0.07800
N66         N  0.30507461  0.50250028  0.89499874    -0.36100
N67         N  0.28723428  0.49054888  0.88802965    -0.28200
C68         C  0.27263860  0.50436512  0.87691108    -0.03500
C69         C  0.28157971  0.52635662  0.87669154     0.05100
C70         C  0.30225904  0.52448573  0.88842684     0.03200
H71         H  0.25727571  0.49838761  0.86850829     0.08300
H72         H  0.31469417  0.53788283  0.89138319     0.07200
N73         N  0.06143963  0.30382600  0.03898360    -0.27200
N74         N  0.05752686  0.32275333  0.05074795    -0.35100
C75         C  0.06497316  0.31956053  0.07240425     0.01100
C76         C  0.07355384  0.29739757  0.07415925     0.07100
C77         C  0.07089446  0.28801246  0.05267548    -0.06000
H78         H  0.06440138  0.33239789  0.08574986     0.07800
H79         H  0.07682823  0.27139109  0.04700287     0.09000
Cu80       Cu  0.04243450  0.35131068  0.03515262     0.44200
Cu81       Cu  0.05925915  0.30185852  0.00395883     0.42000
Cu82       Cu  0.04436150  0.35135222  0.97159619     0.43900
N83         N  0.02466705  0.37430795  0.01409585    -0.34600
N84         N  0.02523709  0.37428669  0.99143204    -0.28900
C85         C  0.01073609  0.39047513  0.98359062    -0.05000
C86         C  0.00052097  0.40115999  0.00210977     0.07300
C87         C  0.00978783  0.39048261  0.02112914     0.01100
H88         H  0.00746677  0.39384315  0.96568979     0.08700
H89         H  0.00556990  0.39381716  0.03882727     0.07800
N90         N  0.06320923  0.32416315  0.95783052    -0.36100
N91         N  0.06811100  0.30584098  0.97015504    -0.28200
C92         C  0.08158822  0.29175781  0.95804524    -0.03500
C93         C  0.08540242  0.30144651  0.93682124     0.05100
C94         C  0.07332008  0.32200071  0.93718887     0.03200
H95         H  0.08845653  0.27579438  0.96449183     0.08300
H96         H  0.07265820  0.33479200  0.92381803     0.07200
N97         N  0.29853870  0.91343327  0.10959997    -0.27200
N98         N  0.31663919  0.90158380  0.10310830    -0.35100
C99         C  0.31467079  0.88004928  0.11133827     0.01100
C100        C  0.29430709  0.87842046  0.12363135     0.07100
C101        C  0.28466586  0.90003980  0.12200590    -0.06000
H102        H  0.32734990  0.86676913  0.10893199     0.07800
H103        H  0.26920770  0.90611022  0.13013591     0.09000
Cu104      Cu  0.34321846  0.91695230  0.08458456     0.44200
Cu105      Cu  0.29478220  0.94810873  0.10470003     0.42000
Cu106      Cu  0.34151216  0.98086592  0.08373431     0.43900
N107        N  0.36587134  0.93787866  0.06619063    -0.34600
N108        N  0.36520243  0.96060408  0.06586072    -0.28900
C109        C  0.38164801  0.96832560  0.05166953    -0.05000
C110        C  0.39325472  0.94971001  0.04261793     0.07300
C111        C  0.38279112  0.93070803  0.05223805     0.01100
H112        H  0.38469897  0.98622399  0.04792557     0.08700
H113        H  0.38692358  0.91291624  0.04902806     0.07800
N114        N  0.31395326  0.99567580  0.10130104    -0.36100
N115        N  0.29630732  0.98315656  0.10777187    -0.28200
C116        C  0.28120131  0.99636629  0.11887711    -0.03500
C117        C  0.28957243  0.01850443  0.11970048     0.05100
C118        C  0.31051579  0.01745268  0.10841017     0.03200
H119        H  0.26575109  0.98996982  0.12677286     0.08300
H120        H  0.32242976  0.03138275  0.10576227     0.07200
N121        N  0.81889712  0.58814404  0.52945515    -0.27200
N122        N  0.82996109  0.57351262  0.54264850    -0.35100
C123        C  0.82506776  0.57849784  0.56469186     0.01100
C124        C  0.81039708  0.59733289  0.56505895     0.07100
C125        C  0.80691130  0.60275887  0.54234867    -0.06000
H126        H  0.83198793  0.56944031  0.57928946     0.07800
H127        H  0.79616208  0.61620055  0.53549187     0.09000
Cu128      Cu  0.85128473  0.54865441  0.52807619     0.44200
Cu129      Cu  0.81922409  0.58771544  0.49448222     0.42000
Cu130      Cu  0.84953127  0.54670072  0.46316089     0.43900
N131        N  0.87172086  0.52786371  0.50713853    -0.34600
N132        N  0.87121326  0.52729644  0.48444299    -0.28900
C133        C  0.88686292  0.51199424  0.47710934    -0.05000
C134        C  0.89770039  0.50244631  0.49589979     0.07300
C135        C  0.88765928  0.51290711  0.51461892     0.01100
H136        H  0.88994737  0.50791527  0.45933207     0.08700
H137        H  0.89153843  0.50976341  0.53244025     0.07800
N138        N  0.82655475  0.56947507  0.44734302    -0.36100
N139        N  0.81576010  0.58489870  0.45977196    -0.28200
C140        C  0.80209417  0.59757596  0.44642181    -0.03500
C141        C  0.80416400  0.59004580  0.42406516     0.05100
C142        C  0.81990240  0.57202874  0.42532483     0.03200
H143        H  0.79132886  0.61118851  0.45283839     0.08300
H144        H  0.82619728  0.56170812  0.41132298     0.07200
N145        N  0.08395862  0.57987819  0.03807721    -0.27200
N146        N  0.06621581  0.57150877  0.04921732    -0.35100
C147        C  0.06612040  0.58026220  0.07054475     0.01100
C148        C  0.08463209  0.59504448  0.07269762     0.07100
C149        C  0.09551896  0.59423000  0.05173596    -0.06000
H150        H  0.05324634  0.57655699  0.08327939     0.07800
H151        H  0.11070193  0.60345667  0.04658804     0.09000
Cu152      Cu  0.04297581  0.54957659  0.03354746     0.44200
Cu153      Cu  0.09072790  0.57341844  0.00422876     0.42000
Cu154      Cu  0.04802306  0.54580074  0.97038890     0.43900
N155        N  0.02331794  0.52828807  0.01281653    -0.34600
N156        N  0.02487496  0.52703172  0.99024592    -0.28900
C157        C  0.00999122  0.51110865  0.98265623    -0.05000
C158        C  0.99865138  0.50188475  0.00128108     0.07300
C159        C  0.00751453  0.51319544  0.02007901     0.01100
H160        H  0.00788448  0.50630799  0.96491028     0.08700
H161        H  0.00299305  0.51049330  0.03780941     0.07800
N162        N  0.07532920  0.56405475  0.95618323    -0.36100
N163        N  0.09161059  0.57290386  0.96912722    -0.28200
C164        C  0.10696476  0.58363850  0.95592648    -0.03500
C165        C  0.10008881  0.58175694  0.93340084     0.05100
C166        C  0.07984773  0.56925933  0.93415579     0.03200
H167        H  0.12146186  0.59314749  0.96243126     0.08300
H168        H  0.06913975  0.56448175  0.91982738     0.07200
O169        O  0.92602545  0.42596475  0.02058267    -0.72900
O170        O  0.97371021  0.47586526  0.02027784    -0.73900
O171        O  0.92502850  0.47497829  0.02030668    -0.62500
O172        O  0.97476622  0.42688817  0.02061579    -0.70900
O173        O  0.97495540  0.42654347  0.98267920    -0.70400
O174        O  0.92517763  0.47467873  0.98237035    -0.61700
O175        O  0.97393872  0.47548945  0.98233131    -0.74200
O176        O  0.92619482  0.42555753  0.98264237    -0.73000
Cu177      Cu  0.94988216  0.45093185  0.02175431     1.04600
Cu178      Cu  0.95004539  0.45056741  0.98118276     1.04300
C179        C  0.91871805  0.41778044  0.00165714     0.93300
C180        C  0.98129238  0.48356387  0.00128000     0.92500
C181        C  0.91737675  0.48251507  0.00124954     0.84600
C182        C  0.98263488  0.41908061  0.00176311     0.90900
N183        N  0.59241093  0.92206084  0.10941221    -0.27200
N184        N  0.57444975  0.90929490  0.10442829    -0.35100
C185        C  0.57866970  0.88762891  0.11142164     0.01100
C186        C  0.60044823  0.88685987  0.12112839     0.07100
C187        C  0.60849339  0.90910065  0.11945727    -0.06000
H188        H  0.56673936  0.87356573  0.10969410     0.07800
H189        H  0.62448651  0.91573858  0.12597320     0.09000
Cu190      Cu  0.54563466  0.92348599  0.08844032     0.44200
Cu191      Cu  0.59339778  0.95707953  0.10531110     0.42000
Cu192      Cu  0.54381434  0.98750134  0.08707773     0.43900
N193        N  0.52177542  0.94307626  0.07008272    -0.34600
N194        N  0.52116707  0.96580039  0.06954586    -0.28900
C195        C  0.50470146  0.97245679  0.05480177    -0.05000
C196        C  0.49446192  0.95312865  0.04558337     0.07300
C197        C  0.50570351  0.93484325  0.05570057     0.01100
H198        H  0.50092434  0.99011493  0.05057374     0.08700
H199        H  0.50288280  0.91682746  0.05232997     0.07800
N200        N  0.57165777  0.00373017  0.10285640    -0.36100
N201        N  0.59024003  0.99207971  0.10833245    -0.28200
C202        C  0.60555162  0.00616404  0.11800822    -0.03500
C203        C  0.59636885  0.02799680  0.11888827     0.05100
C204        C  0.57469468  0.02581250  0.10917801     0.03200
H205        H  0.62183729  0.00058247  0.12479749     0.08300
H206        H  0.56207874  0.03920482  0.10695604     0.07200
O207        O  0.42066185  0.93124746  0.01848237    -0.72900
O208        O  0.47112724  0.93248516  0.97114228    -0.73900
O209        O  0.46968403  0.93293679  0.01996998    -0.62500
O210        O  0.42200796  0.93085163  0.96960921    -0.70900
O211        O  0.42117326  0.96886751  0.96927634    -0.70400
O212        O  0.46838498  0.97094290  0.01965395    -0.61700
O213        O  0.47017127  0.97049576  0.97096420    -0.74200
O214        O  0.41944881  0.96925042  0.01805304    -0.73000
Cu215      Cu  0.44590660  0.93055434  0.99480651     1.04600
Cu216      Cu  0.44472726  0.97118714  0.99446667     1.04300
C217        C  0.41203377  0.95007888  0.02564215     0.93300
C218        C  0.47879958  0.95165874  0.96381280     0.92500
C219        C  0.47661800  0.95227637  0.02763355     0.84600
C220        C  0.41405063  0.94963200  0.96156886     0.90900
N221        N  0.83301402  0.30441761  0.96764505    -0.27200
N222        N  0.84154793  0.32132588  0.95536481    -0.35100
C223        C  0.83464848  0.31868935  0.93351298     0.01100
C224        C  0.82105540  0.29912439  0.93208808     0.07100
C225        C  0.82050401  0.29063259  0.95419108    -0.06000
H226        H  0.83890124  0.33039426  0.91983550     0.07800
H227        H  0.81093032  0.27606451  0.96040790     0.09000
Cu228      Cu  0.86077220  0.34747673  0.97044427     0.44200
Cu229      Cu  0.83594099  0.30262208  0.00257812     0.42000
Cu230      Cu  0.85778969  0.35052534  0.03401078     0.43900
N231        N  0.87856542  0.37103508  0.99072061    -0.34600
N232        N  0.87747846  0.37218436  0.01333655    -0.28900
C233        C  0.89141167  0.38908784  0.02061419    -0.05000
C234        C  0.90171389  0.39907326  0.00178203     0.07300
C235        C  0.89317703  0.38718991  0.98314991     0.01100
H236        H  0.89401204  0.39363554  0.03836268     0.08700
H237        H  0.89746773  0.38990464  0.96536540     0.07800
N238        N  0.83807506  0.32465870  0.04902576    -0.36100
N239        N  0.83116356  0.30675366  0.03708068    -0.28200
C240        C  0.81804042  0.29331272  0.05015403    -0.03500
C241        C  0.81622048  0.30308400  0.07163158     0.05100
C242        C  0.82935533  0.32298845  0.07033693     0.03200
H243        H  0.80984810  0.27791652  0.04395889     0.08300
H244        H  0.83172061  0.33573147  0.08356822     0.07200
C245        C  0.68128510  0.69061156  0.25742859     0.45500
H246        H  0.67058432  0.67928770  0.26828182    -0.03500
C247        C  0.70634369  0.71690619  0.23151327     0.45600
H248        H  0.71714124  0.72788075  0.22041634    -0.03500
C249        C  0.67067571  0.71435621  0.25284457    -0.17200
C250        C  0.70499931  0.69570275  0.26751271    -0.16900
C251        C  0.68630473  0.68037191  0.23373942    -0.17300
C252        C  0.68288049  0.72738079  0.23746949    -0.17300
C253        C  0.71746059  0.71108667  0.25479208    -0.16900
C254        C  0.70049638  0.69364924  0.22055699    -0.17200
N255        N  0.54646057  0.42201662  0.14924890    -0.27200
N256        N  0.53943067  0.40893943  0.13222279    -0.35100
C257        C  0.54491280  0.38697377  0.13715631     0.01100
C258        C  0.55585936  0.38645000  0.15836746     0.07100
C259        C  0.55640934  0.40908059  0.16533307    -0.06000
H260        H  0.54170128  0.37260914  0.12590795     0.07800
H261        H  0.56466903  0.41601690  0.18036110     0.09000
Cu262      Cu  0.52405831  0.42341457  0.10315631     0.44200
Cu263      Cu  0.54623438  0.45711770  0.14886290     0.42000
Cu264      Cu  0.52749467  0.48754733  0.10015365     0.43900
N265        N  0.50837567  0.44393951  0.07810483    -0.34600
N266        N  0.50930617  0.46664960  0.07726290    -0.28900
C267        C  0.49617797  0.47401016  0.05975440    -0.05000
C268        C  0.48657753  0.45516908  0.04898232     0.07300
C269        C  0.49472109  0.43643082  0.06107298     0.01100
H270        H  0.49341651  0.49184521  0.05549303     0.08700
H271        H  0.49044833  0.41862653  0.05814651     0.07800
N272        N  0.54686281  0.50298523  0.12611807    -0.36100
N273        N  0.55325671  0.49121063  0.14427864    -0.28200
C274        C  0.56652503  0.50427178  0.15768727    -0.03500
C275        C  0.56881788  0.52565115  0.14766579     0.05100
C276        C  0.55593231  0.52421350  0.12761042     0.03200
H277        H  0.57427464  0.49823289  0.17335463     0.08300
H278        H  0.55383746  0.53733155  0.11471589     0.07200
C279        C  0.69850036  0.19425224  0.23353000     0.45500
H280        H  0.70884715  0.18283658  0.22245799    -0.03500
C281        C  0.67445539  0.22117892  0.25983259     0.45600
H282        H  0.66428053  0.23263730  0.27103012    -0.03500
C283        C  0.69293954  0.21755355  0.22263026    -0.17200
C284        C  0.67511937  0.18417603  0.24023722    -0.16900
C285        C  0.71032297  0.20017927  0.25624115    -0.17300
C286        C  0.67861730  0.23093390  0.23568649    -0.17300
C287        C  0.66334955  0.19755694  0.25568304    -0.16900
C288        C  0.69851063  0.21582048  0.26927953    -0.17200
N289        N  0.48044375  0.09668212  0.39031750    -0.27200
N290        N  0.49333862  0.07952420  0.39742859    -0.35100
C291        C  0.51493009  0.08312101  0.39000589     0.01100
C292        C  0.51548928  0.10356983  0.37759727     0.07100
C293        C  0.49316454  0.11149415  0.37829250    -0.06000
H294        H  0.52903120  0.07152401  0.39311774     0.07800
H295        H  0.48624167  0.12653148  0.37000958     0.09000
Cu296      Cu  0.47918547  0.05209069  0.41591025     0.44200
Cu297      Cu  0.44557102  0.09839435  0.39452364     0.42000
Cu298      Cu  0.41506145  0.05042316  0.41547404     0.43900
N299        N  0.45902575  0.02813178  0.43366759    -0.34600
N300        N  0.43633614  0.02752781  0.43334768    -0.28900
C301        C  0.42919019  0.01043219  0.44710175    -0.05000
C302        C  0.44811304  0.99973089  0.45659561     0.07300
C303        C  0.46672320  0.01140946  0.44767277     0.01100
H304        H  0.41142964  0.00633941  0.45028683     0.08700
H305        H  0.48457922  0.00822497  0.45138203     0.07800
N306        N  0.39889560  0.07755027  0.39823565    -0.36100
N307        N  0.41063912  0.09565027  0.39156243    -0.28200
C308        C  0.39685566  0.11011309  0.38023527    -0.03500
C309        C  0.37506423  0.10084944  0.37943814     0.05100
C310        C  0.37702776  0.08007881  0.39115152     0.03200
H311        H  0.40276036  0.12566796  0.37212821     0.08300
H312        H  0.36375217  0.06747154  0.39383880     0.07200
N313        N  0.97512194  0.09300097  0.62271674    -0.27200
N314        N  0.98876229  0.07802569  0.61273445    -0.35100
C315        C  0.01053405  0.08288797  0.61904526     0.01100
C316        C  0.01018610  0.10198633  0.63345419     0.07100
C317        C  0.98737087  0.10769259  0.63528789    -0.06000
H318        H  0.02544089  0.07342515  0.61347852     0.07800
H319        H  0.97996649  0.12117812  0.64560047     0.09000
Cu320      Cu  0.97464901  0.05260475  0.59127294     0.44200
Cu321      Cu  0.94031532  0.09215074  0.62117977     0.42000
Cu322      Cu  0.90966267  0.04957329  0.59252635     0.43900
N323        N  0.95384418  0.03127648  0.57071911    -0.34600
N324        N  0.93114804  0.03042593  0.57128084    -0.28900
C325        C  0.92378331  0.01513622  0.55566641    -0.05000
C326        C  0.94251933  0.00583331  0.54466513     0.07300
C327        C  0.96128607  0.01643627  0.55463656     0.01100
H328        H  0.90599089  0.01106533  0.55257852     0.08700
H329        H  0.97908990  0.01356752  0.55049386     0.07800
N330        N  0.89373941  0.07228589  0.61502920    -0.36100
N331        N  0.90593076  0.08824673  0.62528364    -0.28200
C332        C  0.89259402  0.10056891  0.63917536    -0.03500
C333        C  0.87050983  0.09217982  0.63779177     0.05100
C334        C  0.87185700  0.07414401  0.62216350     0.03200
H335        H  0.89884443  0.11463081  0.64944216     0.08300
H336        H  0.85810359  0.06311934  0.61652074     0.07200
O337        O  0.96119397  0.98085118  0.51824293    -0.72900
O338        O  0.96048882  0.93145333  0.46982648    -0.73900
O339        O  0.95962145  0.98031704  0.46929032    -0.62500
O340        O  0.96177217  0.93205450  0.51896237    -0.70900
O341        O  0.92384236  0.93126896  0.51972341    -0.70400
O342        O  0.92169344  0.97965009  0.47029828    -0.61700
O343        O  0.92255659  0.93080995  0.47056899    -0.74200
O344        O  0.92326814  0.98012525  0.51931085    -0.73000
Cu345      Cu  0.96207463  0.95615710  0.49403477     1.04600
Cu346      Cu  0.92152414  0.95542513  0.49501473     1.04300
C347        C  0.94233049  0.98815572  0.52652595     0.93300
C348        C  0.94149506  0.92358384  0.46232154     0.92500
C349        C  0.94029275  0.98749455  0.46190257     0.84600
C350        C  0.94312635  0.92431786  0.52739836     0.90900
N351        N  0.06840690  0.30978938  0.53345922    -0.27200
N352        N  0.05711875  0.32496647  0.54581381    -0.35100
C353        C  0.06100419  0.32041690  0.56818588     0.01100
C354        C  0.07511864  0.30121720  0.56957359     0.07100
C355        C  0.07937191  0.29510821  0.54722075    -0.06000
H356        H  0.05379206  0.32998793  0.58229329     0.07800
H357        H  0.09000582  0.28112533  0.54131518     0.09000
Cu358      Cu  0.03687039  0.34978828  0.52949551     0.44200
Cu359      Cu  0.06944482  0.30971442  0.49845795     0.42000
Cu360      Cu  0.03823544  0.34906904  0.46460568     0.43900
N361        N  0.01777143  0.37113556  0.50771174    -0.34600
N362        N  0.01812900  0.37094020  0.48500755    -0.28900
C363        C  0.00347362  0.38706151  0.47723638    -0.05000
C364        C  0.99341452  0.39786685  0.49578966     0.07300
C365        C  0.00290721  0.38732082  0.51475609     0.01100
H366        H  0.00036561  0.39065332  0.45935059     0.08700
H367        H  0.99925215  0.39112770  0.53248443     0.07800
N368        N  0.06080214  0.32494483  0.45029581    -0.36100
N369        N  0.07218987  0.31063432  0.46355698    -0.28200
C370        C  0.08600435  0.29748293  0.45084891    -0.03500
C371        C  0.08345599  0.30357803  0.42813643     0.05100
C372        C  0.06714273  0.32107525  0.42840514     0.03200
H373        H  0.09708998  0.28442245  0.45787186     0.08300
H374        H  0.06072808  0.33059333  0.41387793     0.07200
N375        N  0.33067261  0.91543171  0.84732627    -0.27200
N376        N  0.33555724  0.90309118  0.86562279    -0.35100
C377        C  0.32746462  0.88162288  0.86232317     0.01100
C378        C  0.31722961  0.88057229  0.84080200     0.07100
C379        C  0.31970760  0.90239844  0.83195206    -0.06000
H380        H  0.32877250  0.86789219  0.87468627     0.07800
H381        H  0.31297470  0.90878849  0.81593932     0.09000
Cu382      Cu  0.35282832  0.91768243  0.89363620     0.44200
Cu383      Cu  0.33519531  0.95029905  0.84507774     0.42000
Cu384      Cu  0.35510688  0.98166033  0.89286232     0.43900
N385        N  0.37199475  0.93800985  0.91641754    -0.34600
N386        N  0.37273290  0.96072964  0.91593054    -0.28900
C387        C  0.38746186  0.96811822  0.93204127    -0.05000
C388        C  0.39658138  0.94931798  0.94322697     0.07300
C389        C  0.38634501  0.93050696  0.93292036     0.01100
H390        H  0.39159339  0.98593802  0.93507410     0.08700
H391        H  0.38943154  0.91264390  0.93683431     0.07800
N392        N  0.33705385  0.99708719  0.86616187    -0.36100
N393        N  0.33049894  0.98507723  0.84821377    -0.28200
C394        C  0.31790095  0.99830856  0.83433530    -0.03500
C395        C  0.31622786  0.02001130  0.84383858     0.05100
C396        C  0.32876576  0.01858475  0.86409414     0.03200
H397        H  0.30973080  0.99201566  0.81899870     0.08300
H398        H  0.33104041  0.03184990  0.87680349     0.07200
C399        C  0.18105049  0.18737762  0.76229024     0.45500
H400        H  0.17038105  0.17598420  0.77314632    -0.03500
C401        C  0.20616858  0.21398626  0.73688790     0.45600
H402        H  0.21694688  0.22530759  0.72607024    -0.03500
C403        C  0.20451749  0.17719085  0.75640779    -0.17200
C404        C  0.17015573  0.19292646  0.73904021    -0.16900
C405        C  0.18609081  0.21081911  0.77325943    -0.17300
C406        C  0.21748844  0.19085500  0.74240960    -0.17300
C407        C  0.18293360  0.20781997  0.72596522    -0.16900
C408        C  0.20016048  0.22447206  0.76025719    -0.17200
N409        N  0.41084529  0.08198935  0.63439073    -0.27200
N410        N  0.39822783  0.06786021  0.62208108    -0.35100
C411        C  0.37595538  0.07275733  0.62601097     0.01100
C412        C  0.37470434  0.09094604  0.64150277     0.07100
C413        C  0.39731491  0.09608813  0.64635296    -0.06000
H414        H  0.36180705  0.06397841  0.61793370     0.07800
H415        H  0.40378455  0.10922580  0.65766493     0.09000
Cu416      Cu  0.41364283  0.04359922  0.60041652     0.44200
Cu417      Cu  0.44594958  0.08287976  0.63406254     0.42000
Cu418      Cu  0.47804885  0.04576277  0.59873110     0.43900
N419        N  0.43475957  0.02239056  0.58035438    -0.34600
N420        N  0.45744326  0.02319141  0.57985164    -0.28900
C421        C  0.46511738  0.00745571  0.56481058    -0.05000
C422        C  0.44654862  0.99619933  0.55531675     0.07300
C423        C  0.42760459  0.00611857  0.56557924     0.01100
H424        H  0.48296614  0.00466557  0.56080380     0.08700
H425        H  0.40985420  0.00200077  0.56232559     0.07800
N426        N  0.49351595  0.07069842  0.61938450    -0.36100
N427        N  0.48098328  0.08441010  0.63221799    -0.28200
C428        C  0.49458246  0.09898118  0.64358036    -0.03500
C429        C  0.51706395  0.09439947  0.63782270     0.05100
C430        C  0.51576424  0.07619563  0.62243321     0.03200
H431        H  0.48841094  0.11172721  0.65550336     0.08300
H432        H  0.52987121  0.06771522  0.61397387     0.07200
C433        C  0.68325221  0.21894886  0.73896909     0.45500
H434        H  0.67307402  0.23049320  0.72782656    -0.03500
C435        C  0.70731454  0.19188333  0.76521447     0.45600
H436        H  0.71760260  0.18039548  0.77631301    -0.03500
C437        C  0.70661525  0.21240389  0.72888353    -0.17200
C438        C  0.68874559  0.22922064  0.76265343    -0.16900
C439        C  0.67157612  0.19583087  0.74399312    -0.17300
C440        C  0.71851099  0.19683810  0.74195009    -0.17300
C441        C  0.70279876  0.21556017  0.77573955    -0.16900
C442        C  0.68343266  0.18250459  0.75940020    -0.17200
N443        N  0.56363268  0.42022953  0.85953611    -0.27200
N444        N  0.55324487  0.40802775  0.87541181    -0.35100
C445        C  0.55994941  0.38595103  0.87325795     0.01100
C446        C  0.57548676  0.38444623  0.85523356     0.07100
C447        C  0.57717492  0.40661601  0.84701402    -0.06000
H448        H  0.55443315  0.37220245  0.88435219     0.07800
H449        H  0.58766236  0.41266962  0.83305302     0.09000
Cu450      Cu  0.53170902  0.42395012  0.89929223     0.44200
Cu451      Cu  0.56085300  0.45516294  0.85660510     0.42000
Cu452      Cu  0.53136238  0.48839291  0.89846661     0.43900
N453        N  0.51181701  0.44499829  0.92058068    -0.34600
N454        N  0.51165479  0.46774887  0.92044460    -0.28900
C455        C  0.49662184  0.47515746  0.93634092    -0.05000
C456        C  0.48686613  0.45628778  0.94696425     0.07300
C457        C  0.49693714  0.43753288  0.93650830     0.01100
H458        H  0.49295079  0.49300104  0.93981470     0.08700
H459        H  0.49359365  0.41966309  0.94014043     0.07800
N460        N  0.55215014  0.50312635  0.87309078    -0.36100
N461        N  0.56223554  0.49028885  0.85748279    -0.28200
C462        C  0.57474012  0.50350206  0.84354988    -0.03500
C463        C  0.57267648  0.52606371  0.85049315     0.05100
C464        C  0.55817793  0.52519014  0.86941197     0.03200
H465        H  0.58523899  0.49687017  0.82985612     0.08300
H466        H  0.55257044  0.53944664  0.87980742     0.07200
C467        C  0.71217255  0.71434695  0.76163816     0.45500
H468        H  0.72298354  0.72545832  0.77264626    -0.03500
C469        C  0.68703811  0.68814559  0.73561155     0.45600
H470        H  0.67650646  0.67707486  0.72432056    -0.03500
C471        C  0.68927985  0.72526619  0.75465880    -0.17200
C472        C  0.72378534  0.70759671  0.73905850    -0.16900
C473        C  0.70563310  0.69135836  0.77279676    -0.17300
C474        C  0.67674366  0.71211109  0.73965100    -0.17300
C475        C  0.71105348  0.69279814  0.72602499    -0.16900
C476        C  0.69108149  0.67826963  0.75965696    -0.17200
N477        N  0.41005934  0.81003949  0.63183193    -0.27200
N478        N  0.39749444  0.82451022  0.61982984    -0.35100
C479        C  0.37551025  0.82247732  0.62677070     0.01100
C480        C  0.37463234  0.80623352  0.64421742     0.07100
C481        C  0.39688318  0.79883437  0.64682565    -0.06000
H482        H  0.36137592  0.83241049  0.62007555     0.07800
H483        H  0.40309377  0.78594885  0.65860698     0.09000
Cu484      Cu  0.41299098  0.84661343  0.59598038     0.44200
Cu485      Cu  0.44447508  0.80538658  0.62752578     0.42000
Cu486      Cu  0.47734163  0.84263164  0.59308022     0.43900
N487        N  0.43443181  0.86750423  0.57585672    -0.34600
N488        N  0.45710190  0.86635227  0.57522983    -0.28900
C489        C  0.46498419  0.88256574  0.56081080    -0.05000
C490        C  0.44655913  0.89448696  0.55183152     0.07300
C491        C  0.42749882  0.88444322  0.56174098     0.01100
H492        H  0.48287080  0.88531544  0.55696270     0.08700
H493        H  0.40981521  0.88912694  0.55889102     0.07800
N494        N  0.49195122  0.81552100  0.61149905    -0.36100
N495        N  0.47901834  0.80147151  0.62352428    -0.28200
C496        C  0.49206341  0.78539725  0.63341113    -0.03500
C497        C  0.51459139  0.78939649  0.62759701     0.05100
C498        C  0.51395440  0.80878759  0.61370704     0.03200
H499        H  0.48558816  0.77226936  0.64474191     0.08300
H500        H  0.52834813  0.81735496  0.60586986     0.07200
C501        C  0.17647312  0.71521956  0.76182344     0.45500
H502        H  0.16653651  0.72663750  0.77332499    -0.03500
C503        C  0.19988001  0.68835663  0.73493158     0.45600
H504        H  0.21000145  0.67680296  0.72374114    -0.03500
C505        C  0.16480767  0.71055062  0.73869768    -0.17200
C506        C  0.20013330  0.72482870  0.75551540    -0.16900
C507        C  0.18127543  0.69147123  0.77205603    -0.17300
C508        C  0.17636202  0.69510671  0.72517523    -0.17300
C509        C  0.21198332  0.71115524  0.74041288    -0.16900
C510        C  0.19443416  0.67777229  0.75830035    -0.17200
N511        N  0.97761173  0.84659139  0.34495268    -0.27200
N512        N  0.98961154  0.85132966  0.36348414    -0.35100
C513        C  0.01118707  0.84362983  0.36040153     0.01100
C514        C  0.01264868  0.83363667  0.33880003     0.07100
C515        C  0.99095240  0.83598019  0.32964065    -0.06000
H516        H  0.02457208  0.84465879  0.37314935     0.07800
H517        H  0.98476239  0.82912851  0.31360943     0.09000
Cu518      Cu  0.97414312  0.86677113  0.39184924     0.44200
Cu519      Cu  0.94276358  0.85037087  0.34257599     0.42000
Cu520      Cu  0.91014488  0.86613146  0.39130045     0.43900
N521        N  0.95315021  0.88360235  0.41555332    -0.34600
N522        N  0.93045910  0.88347968  0.41537408    -0.28900
C523        C  0.92285199  0.89720377  0.43231758    -0.05000
C524        C  0.94152960  0.90640114  0.44369186     0.07300
C525        C  0.96040604  0.89737748  0.43258509     0.01100
H526        H  0.90500442  0.90074589  0.43569153     0.08700
H527        H  0.97817782  0.90107450  0.43620628     0.07800
N528        N  0.89562258  0.84978285  0.36281669    -0.36100
N529        N  0.90806838  0.84521670  0.34455740    -0.28200
C530        C  0.89520257  0.83442807  0.32893520    -0.03500
C531        C  0.87335508  0.83184090  0.33755912     0.05100
C532        C  0.87422568  0.84175787  0.35922545     0.03200
H533        H  0.90170967  0.82793285  0.31288294     0.08300
H534        H  0.86045790  0.84282753  0.37151377     0.07200
C535        C  0.20643008  0.69025093  0.26405809     0.45500
H536        H  0.21724614  0.67828637  0.27410650    -0.03500
C537        C  0.18066317  0.71834458  0.24063392     0.45600
H538        H  0.16967154  0.73022188  0.23068579    -0.03500
C539        C  0.18357523  0.69613781  0.27580429    -0.17200
C540        C  0.21778233  0.71358591  0.25912105    -0.16900
C541        C  0.19968249  0.68105148  0.24032931    -0.17300
C542        C  0.17091607  0.71229836  0.26424715    -0.17300
C543        C  0.20481167  0.72765098  0.24530062    -0.16900
C544        C  0.18465120  0.69514169  0.22886268    -0.17200
N545        N  0.32266966  0.41562612  0.14355064    -0.27200
N546        N  0.32998563  0.40349020  0.12600168    -0.35100
C547        C  0.32272908  0.38167417  0.12864853     0.01100
C548        C  0.31012293  0.38020256  0.14886982     0.07100
C549        C  0.31064719  0.40221771  0.15771677    -0.06000
H550        H  0.32593698  0.36810544  0.11646862     0.07800
H551        H  0.30229772  0.40849339  0.17295975     0.09000
Cu552      Cu  0.34816270  0.41925868  0.09940817     0.44200
Cu553      Cu  0.32635191  0.45045784  0.14614393     0.42000
Cu554      Cu  0.34616507  0.48391614  0.09972237     0.43900
N555        N  0.36558252  0.44084589  0.07656894    -0.34600
N556        N  0.36477395  0.46358870  0.07659853    -0.28900
C557        C  0.37869163  0.47153235  0.06002414    -0.05000
C558        C  0.38875869  0.45307307  0.04904397     0.07300
C559        C  0.38002825  0.43392629  0.05997728     0.01100
H560        H  0.38161722  0.48950098  0.05651697     0.08700
H561        H  0.38420820  0.41621244  0.05641645     0.07800
N562        N  0.32868322  0.49835528  0.12757369    -0.36100
N563        N  0.32244639  0.48534411  0.14491970    -0.28200
C564        C  0.31146651  0.49801741  0.16050322    -0.03500
C565        C  0.31054329  0.52045535  0.15293294     0.05100
C566        C  0.32164654  0.52004586  0.13180715     0.03200
H567        H  0.30399249  0.49099981  0.17587153     0.08300
H568        H  0.32432080  0.53435867  0.12036344     0.07200
N569        N  0.09698179  0.55702723  0.53552029    -0.27200
N570        N  0.07845373  0.55146201  0.54710607    -0.35100
C571        C  0.08116040  0.55845472  0.56897130     0.01100
C572        C  0.10254327  0.56880897  0.57103738     0.07100
C573        C  0.11192906  0.56748117  0.54939366    -0.06000
H574        H  0.06835320  0.55662367  0.58217561     0.07800
H575        H  0.12790172  0.57482834  0.54366396     0.09000
Cu576      Cu  0.05076964  0.53580428  0.53065872     0.44200
Cu577      Cu  0.09992339  0.55414992  0.50069073     0.41000
Cu578      Cu  0.05265957  0.53691497  0.46656104     0.43900
N579        N  0.02756210  0.51925908  0.50890461    -0.34600
N580        N  0.02817439  0.51952641  0.48623059    -0.28900
C581        C  0.01112800  0.50617195  0.47817573    -0.05000
C582        C  0.99926474  0.49707812  0.49655378     0.07300
C583        C  0.01016341  0.50576825  0.51570174     0.01100
H584        H  0.00789014  0.50296435  0.46024157     0.08700
H585        H  0.00603109  0.50217393  0.53336788     0.07800
N586        N  0.08107384  0.55406237  0.45297511    -0.36100
N587        N  0.09871099  0.55941436  0.46602597    -0.28200
C588        C  0.11423559  0.57091977  0.45372278    -0.03500
C589        C  0.10622221  0.57313069  0.43157464     0.05100
C590        C  0.08501448  0.56219556  0.43171436     0.03200
H591        H  0.12973344  0.57809879  0.46084127     0.08300
H592        H  0.07317677  0.56059868  0.41757699     0.07200
N593        N  0.98176630  0.84079869  0.64058004    -0.27200
N594        N  0.99400481  0.85103545  0.62464125    -0.35100
C595        C  0.01633232  0.84661559  0.62870242     0.01100
C596        C  0.01791906  0.83304476  0.64825071     0.07100
C597        C  0.99558025  0.82977644  0.65512497    -0.06000
H598        H  0.03026171  0.85255930  0.61809477     0.07800
H599        H  0.98954324  0.81929392  0.66911028     0.09000
Cu600      Cu  0.97800823  0.86928672  0.59829632     0.44200
Cu601      Cu  0.94686545  0.83956284  0.64112408     0.42000
Cu602      Cu  0.91368908  0.86491408  0.59762758     0.43900
N603        N  0.95626958  0.88570621  0.57495297    -0.34600
N604        N  0.93360927  0.88431498  0.57473864    -0.28900
C605        C  0.92554715  0.89751801  0.55758272    -0.05000
C606        C  0.94386732  0.90763283  0.54645088     0.07300
C607        C  0.96302665  0.89975304  0.55795488     0.01100
H608        H  0.90759936  0.89979803  0.55365695     0.08700
H609        H  0.98064304  0.90419952  0.55445767     0.07800
N610        N  0.89936609  0.84356352  0.62279451    -0.36100
N611        N  0.91239677  0.83430810  0.63874578    -0.28200
C612        C  0.89982129  0.82061637  0.65214810    -0.03500
C613        C  0.87745062  0.82113888  0.64453096     0.05100
C614        C  0.87772812  0.83603716  0.62587591     0.03200
H615        H  0.90661713  0.81103761  0.66646239     0.08300
H616        H  0.86341114  0.84063648  0.61507666     0.07200
N617        N  0.59592435  0.98680487  0.88396433    -0.27200
N618        N  0.57861359  0.99932841  0.89132627    -0.35100
C619        C  0.58249050  0.02138490  0.88544218     0.01100
C620        C  0.60333091  0.02259055  0.87396968     0.07100
C621        C  0.61117518  0.00024665  0.87340289    -0.06000
H622        H  0.57098594  0.03542627  0.88915473     0.07800
H623        H  0.62647922  0.99391988  0.86516775     0.09000
Cu624      Cu  0.55087384  0.98436910  0.90849301     0.44200
Cu625      Cu  0.59753481  0.95172873  0.88595293     0.42000
Cu626      Cu  0.55010312  0.92042428  0.90702185     0.43900
N627        N  0.52675129  0.96367662  0.92528654    -0.34600
N628        N  0.52657346  0.94094545  0.92477388    -0.28900
C629        C  0.50930308  0.93332563  0.93800328    -0.05000
C630        C  0.49800947  0.95200539  0.94730686     0.07300
C631        C  0.50955096  0.97095025  0.93885090     0.01100
H632        H  0.50549036  0.91542572  0.94095999     0.08700
H633        H  0.50599608  0.98874881  0.94266250     0.07800
N634        N  0.57684365  0.90491025  0.88884249    -0.36100
N635        N  0.59458839  0.91692875  0.88180373    -0.28200
C636        C  0.60875433  0.90342475  0.86983807    -0.03500
C637        C  0.59967641  0.88150550  0.86908265     0.05100
C638        C  0.57932991  0.88312615  0.88144129     0.03200
H639        H  0.62410998  0.90957250  0.86161031     0.08300
H640        H  0.56699316  0.86967755  0.88444390     0.07200
N641        N  0.90094192  0.07730368  0.35340697    -0.27200
N642        N  0.88884224  0.06592472  0.36867598    -0.35100
C643        C  0.86642610  0.06992986  0.36461007     0.01100
C644        C  0.86456950  0.08441659  0.34573382     0.07100
C645        C  0.88690150  0.08862566  0.33924359    -0.06000
H646        H  0.85258439  0.06298316  0.37470960     0.07800
H647        H  0.89271916  0.09984397  0.32573532     0.09000
Cu648      Cu  0.90511661  0.04636325  0.39402719     0.44200
Cu649      Cu  0.93598507  0.07895103  0.35332468     0.42000
Cu650      Cu  0.96959897  0.04954982  0.39428364     0.43900
N651        N  0.92690690  0.02833329  0.41625441    -0.34600
N652        N  0.94958861  0.02937583  0.41624826    -0.28900
C653        C  0.95770993  0.01521847  0.43257882    -0.05000
C654        C  0.93943057  0.00477178  0.44340460     0.07300
C655        C  0.92020049  0.01350164  0.43261114     0.01100
H656        H  0.97567446  0.01259853  0.43619951     0.08700
H657        H  0.90257065  0.00919414  0.43621870     0.07800
N658        N  0.98394568  0.07205260  0.37029410    -0.36100
N659        N  0.97078329  0.08292876  0.35549313    -0.28200
C660        C  0.98348488  0.09720782  0.34285357    -0.03500
C661        C  0.00601269  0.09535749  0.34975382     0.05100
C662        C  0.00576745  0.07905917  0.36716404     0.03200
H663        H  0.97669540  0.10816464  0.32956568     0.08300
H664        H  0.02021528  0.07326475  0.37720188     0.07200
C665        C  0.20976578  0.20954160  0.26305303     0.45500
H666        H  0.21963740  0.22102821  0.27456393    -0.03500
C667        C  0.18645218  0.18273218  0.23603618     0.45600
H668        H  0.17645977  0.17141060  0.22447619    -0.03500
C669        C  0.20442455  0.22020179  0.23962374    -0.17200
C670        C  0.22183258  0.18673050  0.25787965    -0.16900
C671        C  0.18638744  0.20257846  0.27278642    -0.17300
C672        C  0.19131061  0.20651341  0.22569504    -0.17300
C673        C  0.21025658  0.17323374  0.24242018    -0.16900
C674        C  0.17444782  0.18767621  0.25897968    -0.17200
N675        N  0.82909984  0.59176065  0.96364325    -0.27200
N676        N  0.83756405  0.57475432  0.95144598    -0.35100
C677        C  0.83108251  0.57767737  0.92944767     0.01100
C678        C  0.81773166  0.59746279  0.92801076     0.07100
C679        C  0.81708190  0.60583595  0.95012759    -0.06000
H680        H  0.83517352  0.56593328  0.91573387     0.07800
H681        H  0.80815297  0.62083608  0.95628531     0.09000
Cu682      Cu  0.85634870  0.54874313  0.96744758     0.44200
Cu683      Cu  0.83142804  0.59390331  0.99851230     0.42000
Cu684      Cu  0.85451163  0.54907507  0.03208198     0.43900
N685        N  0.87496538  0.52696355  0.98906022    -0.34600
N686        N  0.87443162  0.52702249  0.01175275    -0.28900
C687        C  0.88925764  0.51108556  0.01953450    -0.05000
C688        C  0.89956082  0.50051285  0.00098819     0.07300
C689        C  0.89008185  0.51102498  0.98201071     0.01100
H690        H  0.89250977  0.50764398  0.03742434     0.08700
H691        H  0.89411693  0.50756676  0.96429403     0.07800
N692        N  0.83452005  0.57543058  0.04621920    -0.36100
N693        N  0.82678444  0.59216670  0.03316574    -0.28200
C694        C  0.81413306  0.60663436  0.04564188    -0.03500
C695        C  0.81359402  0.59888061  0.06798257     0.05100
C696        C  0.82687985  0.57897101  0.06774432     0.03200
H697        H  0.80577430  0.62159799  0.03863581     0.08300
H698        H  0.83037040  0.56768273  0.08199660     0.07200
O699        O  0.41311085  0.43553577  0.97341213    -0.72900
O700        O  0.46246572  0.43607138  0.02201567    -0.73900
O701        O  0.41379305  0.43494863  0.02231040    -0.62500
O702        O  0.46211139  0.43672871  0.97291863    -0.70900
O703        O  0.46130700  0.47473786  0.97320149    -0.70400
O704        O  0.41311530  0.47296742  0.02293097    -0.61700
O705        O  0.46189867  0.47409305  0.02234025    -0.74200
O706        O  0.41223128  0.47354536  0.97407613    -0.73000
Cu707      Cu  0.43794282  0.43452016  0.99759401     1.04600
Cu708      Cu  0.43713916  0.47515870  0.99810447     1.04300
C709        C  0.40467728  0.45448196  0.96632041     0.93300
C710        C  0.46966146  0.45512161  0.03011574     0.92500
C711        C  0.40596527  0.45369491  0.03051702     0.84600
C712        C  0.46929525  0.45594608  0.96522286     0.90900
O713        O  0.42941243  0.92346893  0.47843661    -0.72900
O714        O  0.42811830  0.97066513  0.52913877    -0.73900
O715        O  0.42913490  0.97249269  0.48038468    -0.62500
O716        O  0.42825755  0.92159941  0.52725341    -0.70900
O717        O  0.46618937  0.92151552  0.52805689    -0.70400
O718        O  0.46707027  0.97266764  0.48099388    -0.61700
O719        O  0.46605502  0.97079685  0.52983428    -0.74200
O720        O  0.46734733  0.92342315  0.47918183    -0.73000
Cu721      Cu  0.42744585  0.94704256  0.50377305     1.04600
Cu722      Cu  0.46799705  0.94709944  0.50455867     1.04300
C723        C  0.44852233  0.91592824  0.47089148     0.93300
C724        C  0.44691623  0.97832322  0.53732936     0.92500
C725        C  0.44815576  0.98070438  0.47338830     0.84600
C726        C  0.44704764  0.91344386  0.53496803     0.90900
O727        O  0.91997038  0.42767151  0.47664491    -0.72900
O728        O  0.97188240  0.47365850  0.47702723    -0.73900
O729        O  0.96903083  0.42472085  0.47666082    -0.62500
O730        O  0.92285758  0.47641530  0.47694545    -0.70900
O731        O  0.92273979  0.47621255  0.51488019    -0.70400
O732        O  0.96898817  0.42468428  0.51459139    -0.61700
O733        O  0.97161708  0.47345419  0.51496002    -0.74200
O734        O  0.92014942  0.42745578  0.51457886    -0.73000
Cu735      Cu  0.94595177  0.45063433  0.47549281     1.04600
Cu736      Cu  0.94588960  0.45045007  0.51604995     1.04300
C737        C  0.91178928  0.42047120  0.49560478     0.93300
C738        C  0.97997552  0.48069749  0.49611307     0.92500
C739        C  0.97633956  0.41661571  0.49563594     0.84600
C740        C  0.91533341  0.48425967  0.49592349     0.90900
C741        C  0.15323757  0.17560108  0.26604917    -0.03100
C742        C  0.15333802  0.15162717  0.26745083    -0.05700
C743        C  0.13480645  0.13992399  0.27702088    -0.20800
C744        C  0.11568994  0.15188132  0.28539201     0.24900
C745        C  0.11514476  0.17595853  0.28283177    -0.18400
C746        C  0.13375586  0.18764909  0.27324113    -0.08300
C747        C  0.09718436  0.13842033  0.29686049    -0.18600
C748        C  0.07937778  0.14768206  0.30823364    -0.23400
C749        C  0.06122734  0.13378982  0.31947601     0.27000
C750        C  0.03917307  0.14307320  0.32107703    -0.20200
C751        C  0.02146638  0.13064683  0.33118315    -0.09800
C752        C  0.02544646  0.10874918  0.34040602    -0.10400
C753        C  0.04771051  0.09970954  0.33965799    -0.03300
C754        C  0.06544513  0.11204650  0.32913999    -0.18400
H755        H  0.16822472  0.14199796  0.26206506     0.10700
H756        H  0.13572146  0.12142718  0.27847968     0.10700
H757        H  0.10067289  0.18602394  0.28835628     0.10400
H758        H  0.13322593  0.20616896  0.27200907     0.11500
H759        H  0.09846446  0.11986106  0.29599725     0.11600
H760        H  0.07722697  0.16611347  0.30880493     0.13500
H761        H  0.03551875  0.15988824  0.31410142     0.10000
H762        H  0.00459639  0.13828382  0.33182348     0.12100
H763        H  0.05127513  0.08291929  0.34670043     0.08700
H764        H  0.08241974  0.10465535  0.32882775     0.11500
C765        C  0.29769764  0.36013228  0.15864620    -0.03100
C766        C  0.29795895  0.33869421  0.14767062    -0.05700
C767        C  0.28635608  0.31993265  0.15709779    -0.20800
C768        C  0.27401040  0.32215007  0.17757583     0.24900
C769        C  0.27372009  0.34354885  0.18859366    -0.18400
C770        C  0.28537574  0.36225195  0.17924993    -0.08300
C771        C  0.26287190  0.30151307  0.18759534    -0.18600
C772        C  0.24528792  0.30234192  0.20252449    -0.23400
C773        C  0.23506746  0.28141435  0.21287724     0.27000
C774        C  0.21188801  0.28146942  0.21931811    -0.20200
C775        C  0.20180706  0.26179511  0.22867968    -0.09800
C776        C  0.21492495  0.24196676  0.23211469    -0.10400
C777        C  0.23821966  0.24213161  0.22656168    -0.03300
C778        C  0.24821995  0.26162294  0.21698093    -0.18400
H779        H  0.30721792  0.33627394  0.13185098     0.10700
H780        H  0.28704735  0.30358320  0.14835091     0.10700
H781        H  0.26502256  0.34583994  0.20475003     0.10400
H782        H  0.28478122  0.37829206  0.18846407     0.11500
H783        H  0.26906087  0.28493457  0.18186454     0.11600
H784        H  0.23743956  0.31868887  0.20662015     0.13500
H785        H  0.20146079  0.29657347  0.21659132     0.10000
H786        H  0.18375176  0.26185835  0.23281790     0.12100
H787        H  0.24852529  0.22689224  0.22904889     0.08700
H788        H  0.26627322  0.26116774  0.21294780     0.11500
C789        C  0.11757392  0.58603800  0.41282211    -0.03100
C790        C  0.14094594  0.59157849  0.41444804    -0.05700
C791        C  0.15159300  0.60479143  0.39764173    -0.20800
C792        C  0.13922234  0.61298658  0.37880039     0.24900
C793        C  0.11594009  0.60693157  0.37675655    -0.18400
C794        C  0.10526301  0.59361383  0.39360961    -0.08300
C795        C  0.15149295  0.62719427  0.36153232    -0.18600
C796        C  0.14088214  0.64130927  0.34671896    -0.23400
C797        C  0.15293930  0.65493630  0.32892356     0.27000
C798        C  0.14053704  0.66131250  0.30944058    -0.20200
C799        C  0.15072858  0.67425736  0.29224476    -0.09800
C800        C  0.17348479  0.68179557  0.29431751    -0.10400
C801        C  0.18613518  0.67531755  0.31366623    -0.03300
C802        C  0.17593188  0.66206410  0.33093293    -0.18400
H803        H  0.15116272  0.58571317  0.42872481     0.10700
H804        H  0.16958552  0.60885009  0.39952541     0.10700
H805        H  0.10589481  0.61215204  0.36213139     0.10400
H806        H  0.08729088  0.58957640  0.39173131     0.11500
H807        H  0.17002241  0.62602107  0.36125749     0.11600
H808        H  0.12237084  0.64256826  0.34697095     0.13500
H809        H  0.12288717  0.65602138  0.30737106     0.10000
H810        H  0.14072960  0.67838571  0.27719777     0.12100
H811        H  0.20369829  0.68088226  0.31562619     0.08700
H812        H  0.18591843  0.65790607  0.34594287     0.11500
C813        C  0.29913610  0.53982287  0.16502630    -0.03100
C814        C  0.29320032  0.53753163  0.18822923    -0.05700
C815        C  0.28152536  0.55493106  0.19969982    -0.20800
C816        C  0.27530594  0.57517823  0.18841717     0.24900
C817        C  0.28170977  0.57787067  0.16529867    -0.18400
C818        C  0.29350137  0.56034978  0.15375018    -0.08300
C819        C  0.26266094  0.59296005  0.20175310    -0.18600
C820        C  0.25037370  0.61002910  0.19226142    -0.23400
C821        C  0.23765830  0.62771991  0.20561779     0.27000
C822        C  0.23214909  0.64833781  0.19462930    -0.20200
C823        C  0.21999622  0.66544526  0.20601010    -0.09800
C824        C  0.21250444  0.66227060  0.22863230    -0.10400
C825        C  0.21807738  0.64175463  0.23985986    -0.03300
C826        C  0.23043090  0.62453352  0.22844072    -0.18400
H827        H  0.29759359  0.52227473  0.19776481     0.10700
H828        H  0.27713747  0.55242832  0.21751889     0.10700
H829        H  0.27792387  0.59346790  0.15606630     0.10400
H830        H  0.29791634  0.56278234  0.13595210     0.11500
H831        H  0.26328989  0.59152442  0.22023589     0.11600
H832        H  0.24975153  0.61155361  0.17379089     0.13500
H833        H  0.23749587  0.65135709  0.17715321     0.10000
H834        H  0.21661366  0.68135515  0.19709193     0.12100
H835        H  0.21256137  0.63889883  0.25729924     0.08700
H836        H  0.23382759  0.60870000  0.23741507     0.11500
C837        C  0.15140374  0.72489528  0.27483730    -0.03100
C838        C  0.15272107  0.73149217  0.29792918    -0.05700
C839        C  0.13491012  0.74358963  0.30821202    -0.20800
C840        C  0.11553570  0.74993865  0.29559342     0.24900
C841        C  0.11405385  0.74327074  0.27244776    -0.18400
C842        C  0.13191556  0.73093664  0.26215363    -0.08300
C843        C  0.09740836  0.76341832  0.30735917    -0.18600
C844        C  0.08342250  0.77816680  0.29644940    -0.23400
C845        C  0.06603407  0.79278175  0.30809890     0.27000
C846        C  0.04866613  0.80256115  0.29473010    -0.20200
C847        C  0.03180389  0.81627294  0.30465337    -0.09800
C848        C  0.03186408  0.82069831  0.32829253    -0.10400
C849        C  0.04968244  0.81162017  0.34165809    -0.03300
C850        C  0.06660154  0.79779236  0.33170133    -0.18400
H851        H  0.16774286  0.72752187  0.30803116     0.10700
H852        H  0.13651066  0.74845390  0.32602537     0.10700
H853        H  0.09907473  0.74726537  0.26233469     0.10400
H854        H  0.13037584  0.72588960  0.24439924     0.11500
H855        H  0.09643892  0.76176371  0.32579603     0.11600
H856        H  0.08468454  0.77977343  0.27800609     0.13500
H857        H  0.04796000  0.79935698  0.27649296     0.10000
H858        H  0.01863697  0.82332422  0.29369783     0.12100
H859        H  0.05030977  0.81476622  0.35988531     0.08700
H860        H  0.08008000  0.79130909  0.34258769     0.11500
C861        C  0.03830494  0.82244954  0.65902994    -0.03100
C862        C  0.05874842  0.81936465  0.64684859    -0.05700
C863        C  0.07701785  0.80733392  0.65670633    -0.20800
C864        C  0.07515302  0.79810535  0.67883273     0.24900
C865        C  0.05510954  0.80224936  0.69139550    -0.18400
C866        C  0.03693001  0.81419666  0.68157971    -0.08300
C867        C  0.09435968  0.78425779  0.68816685    -0.18600
C868        C  0.09180629  0.76853990  0.70491488    -0.23400
C869        C  0.11075838  0.75383967  0.71335284     0.27000
C870        C  0.10954761  0.74466649  0.73554555    -0.20200
C871        C  0.12701803  0.73053802  0.74393312    -0.09800
C872        C  0.14571056  0.72492632  0.73002917    -0.10400
C873        C  0.14683116  0.73395733  0.70779065    -0.03300
C874        C  0.12951729  0.74812140  0.69946989    -0.18400
H875        H  0.06038934  0.82557940  0.62948997     0.10700
H876        H  0.09241777  0.80467305  0.64678010     0.10700
H877        H  0.05331103  0.79644271  0.70885394     0.10400
H878        H  0.02172893  0.81687459  0.69175907     0.11500
H879        H  0.11099453  0.78668844  0.68035034     0.11600
H880        H  0.07524911  0.76607656  0.71286322     0.13500
H881        H  0.09514686  0.74863841  0.74649359     0.10000
H882        H  0.12581883  0.72387188  0.76115057     0.12100
H883        H  0.16128358  0.73019583  0.69683847     0.08700
H884        H  0.13078715  0.75418652  0.68205445     0.11500
C885        C  0.11277247  0.58107608  0.59082033    -0.03100
C886        C  0.13643066  0.58539102  0.59123054    -0.05700
C887        C  0.14614144  0.59883460  0.60841252    -0.20800
C888        C  0.13251662  0.60850201  0.62558526     0.24900
C889        C  0.10893115  0.60340304  0.62585266    -0.18400
C890        C  0.09917983  0.58977713  0.60862398    -0.08300
C891        C  0.14381486  0.62353625  0.64280647    -0.18600
C892        C  0.13275722  0.63948815  0.65523930    -0.23400
C893        C  0.14441058  0.65446176  0.67224404     0.27000
C894        C  0.13174817  0.66252095  0.69089568    -0.20200
C895        C  0.14207106  0.67597375  0.70771919    -0.09800
C896        C  0.16524764  0.68229375  0.70603669    -0.10400
C897        C  0.17786408  0.67470313  0.68707740    -0.03300
C898        C  0.16754756  0.66098498  0.67027210    -0.18400
H899        H  0.14754415  0.57856191  0.57811074     0.10700
H900        H  0.16437773  0.60211953  0.60797470     0.10700
H901        H  0.09793902  0.60982478  0.63925432     0.10400
H902        H  0.08093629  0.58662996  0.60890405     0.11500
H903        H  0.16219011  0.62170474  0.64479789     0.11600
H904        H  0.11437072  0.64135132  0.65353472     0.13500
H905        H  0.11392742  0.65781809  0.69282391     0.10000
H906        H  0.13198711  0.68086870  0.72243959     0.12100
H907        H  0.19569464  0.67931589  0.68524627     0.08700
H908        H  0.17768324  0.65569409  0.65573961     0.11500
C909        C  0.35488454  0.79792246  0.65771919    -0.03100
C910        C  0.35810280  0.79182247  0.68074034    -0.05700
C911        C  0.34040185  0.78192997  0.69331942    -0.20800
C912        C  0.31921592  0.77734629  0.68306551     0.24900
C913        C  0.31568574  0.78401309  0.66015363    -0.18400
C914        C  0.33336237  0.79439495  0.64763873    -0.08300
C915        C  0.30131954  0.76587261  0.69702892    -0.18600
C916        C  0.28535403  0.75179277  0.68814155    -0.23400
C917        C  0.26770711  0.73980529  0.70210157     0.27000
C918        C  0.24766563  0.73232024  0.69118192    -0.20200
C919        C  0.23009328  0.72205111  0.70367455    -0.09800
C920        C  0.23223159  0.71891454  0.72733985    -0.10400
C921        C  0.25269568  0.72513977  0.73821226    -0.03300
C922        C  0.27031263  0.73553917  0.72572387    -0.18400
H923        H  0.37445377  0.79457616  0.68903043     0.10700
H924        H  0.34347776  0.77726482  0.71098191     0.10700
H925        H  0.29932118  0.78133440  0.65190649     0.10400
H926        H  0.33047015  0.79894439  0.62992568     0.11500
H927        H  0.30206402  0.76854051  0.71535826     0.11600
H928        H  0.28482604  0.74919000  0.66977096     0.13500
H929        H  0.24528436  0.73508315  0.67302023     0.10000
H930        H  0.21437663  0.71743860  0.69499411     0.12100
H931        H  0.25472172  0.72259683  0.75644582     0.08700
H932        H  0.28581280  0.74018921  0.73468324     0.11500
C933        C  0.53461472  0.77644087  0.63628709    -0.03100
C934        C  0.53197054  0.75365105  0.64368790    -0.05700
C935        C  0.55004661  0.74200790  0.65418136    -0.20800
C936        C  0.57105532  0.75296105  0.65785255     0.24900
C937        C  0.57410759  0.77538898  0.64939770    -0.18400
C938        C  0.55604818  0.78698589  0.63869061    -0.08300
C939        C  0.58920453  0.74062902  0.67081483    -0.18600
C940        C  0.60478681  0.75170154  0.68367528    -0.23400
C941        C  0.62292527  0.74032309  0.69745545     0.27000
C942        C  0.64197950  0.75346542  0.70367886    -0.20200
C943        C  0.65929699  0.74417454  0.71716751    -0.09800
C944        C  0.65777461  0.72159852  0.72542676    -0.10400
C945        C  0.63887006  0.70818975  0.71903061    -0.03300
C946        C  0.62151267  0.71746342  0.70519744    -0.18400
H947        H  0.51579365  0.74486330  0.64166061     0.10700
H948        H  0.54735832  0.72463223  0.66014200     0.10700
H949        H  0.59035294  0.78409099  0.65109390     0.10400
H950        H  0.55864812  0.80445713  0.63302402     0.11500
H951        H  0.58898044  0.72203454  0.67046909     0.11600
H952        H  0.60448173  0.77030408  0.68415617     0.13500
H953        H  0.64360613  0.77103533  0.69788181     0.10000
H954        H  0.67406537  0.75469553  0.72096171     0.12100
H955        H  0.63731736  0.69069725  0.72503175     0.08700
H956        H  0.60689499  0.70688216  0.70112397     0.11500
C957        C  0.71807789  0.68208660  0.79299285    -0.03100
C958        C  0.72232620  0.69564948  0.81231678    -0.05700
C959        C  0.73482778  0.68675097  0.83077639    -0.20800
C960        C  0.74361873  0.66427738  0.83012207     0.24900
C961        C  0.73922454  0.65075723  0.81068509    -0.18400
C962        C  0.72683405  0.65965497  0.79231637    -0.08300
C963        C  0.75653487  0.65536824  0.85027407    -0.18600
C964        C  0.77003488  0.63652387  0.84979373    -0.23400
C965        C  0.78222094  0.62699470  0.87013154     0.27000
C966        C  0.79940279  0.61041105  0.86683559    -0.20200
C967        C  0.81093517  0.60065915  0.88550109    -0.09800
C968        C  0.80552649  0.60730228  0.90793510    -0.10400
C969        C  0.78811740  0.62365253  0.91119891    -0.03300
C970        C  0.77656512  0.63327813  0.89263576    -0.18400
H971        H  0.71583912  0.71301888  0.81320153     0.10700
H972        H  0.73774837  0.69751445  0.84559092     0.10700
H973        H  0.74499803  0.63320480  0.80952562     0.10400
H974        H  0.72425547  0.64896903  0.77738829     0.11500
H975        H  0.75516389  0.66526530  0.86589443     0.11600
H976        H  0.77288237  0.62776128  0.83370254     0.13500
H977        H  0.80397670  0.60500150  0.84971936     0.10000
H978        H  0.82419565  0.58810944  0.88232305     0.12100
H979        H  0.78298166  0.62887169  0.92816682     0.08700
H980        H  0.76293869  0.64525410  0.89623062     0.11500
C981        C  0.67993322  0.74586243  0.76641030    -0.03100
C982        C  0.69333549  0.76548158  0.76980639    -0.05700
C983        C  0.68443001  0.78439636  0.78160330    -0.20800
C984        C  0.66217205  0.78384246  0.79072549     0.24900
C985        C  0.64874704  0.76415154  0.78713775    -0.18400
C986        C  0.65757571  0.74539302  0.77519594    -0.08300
C987        C  0.65347196  0.80427892  0.80334886    -0.18600
C988        C  0.63618871  0.80350574  0.81868052    -0.23400
C989        C  0.62737056  0.82381012  0.83150947     0.27000
C990        C  0.60612699  0.82212789  0.84263280    -0.20200
C991        C  0.59714464  0.84068762  0.85492463    -0.09800
C992        C  0.60926302  0.86142920  0.85651681    -0.10400
C993        C  0.63072277  0.86294530  0.84569828    -0.03300
C994        C  0.63967791  0.84443659  0.83343131    -0.18400
H995        H  0.71062923  0.76624063  0.76324264     0.10700
H996        H  0.69507718  0.79940015  0.78389827     0.10700
H997        H  0.63131179  0.76315849  0.79320499     0.10400
H998        H  0.64697984  0.73032899  0.77303857     0.11500
H999        H  0.66203526  0.82036482  0.79993223     0.11600
H1000       H  0.62788170  0.78726816  0.82213296     0.13500
H1001       H  0.59631994  0.80641340  0.84166800     0.10000
H1002       H  0.58063527  0.83873995  0.86302084     0.12100
H1003       H  0.64086722  0.87838209  0.84671819     0.08700
H1004       H  0.65641246  0.84643513  0.82588773     0.11500
C1005       C  0.74445271  0.71940182  0.73038524    -0.03100
C1006       C  0.76499464  0.70764658  0.72657506    -0.05700
C1007       C  0.78346965  0.71881960  0.71613585    -0.20800
C1008       C  0.78168804  0.74186767  0.70912075     0.24900
C1009       C  0.76109340  0.75364749  0.71353061    -0.18400
C1010       C  0.74273017  0.74247711  0.72398857    -0.08300
C1011       C  0.80176324  0.75285130  0.69764329    -0.18600
C1012       C  0.80108471  0.77337560  0.68685247    -0.23400
C1013       C  0.82109728  0.78463134  0.67555686     0.27000
C1014       C  0.81719869  0.80428585  0.66213215    -0.20200
C1015       C  0.83535420  0.81589811  0.65164934    -0.09800
C1016       C  0.85793233  0.80828522  0.65453582    -0.10400
C1017       C  0.86189148  0.78857030  0.66783584    -0.03300
C1018       C  0.84377135  0.77690731  0.67823720    -0.18400
H1019       H  0.76656504  0.68975323  0.73129330     0.10700
H1020       H  0.79909578  0.70930417  0.71319861     0.10700
H1021       H  0.75885530  0.77147129  0.70907669     0.10400
H1022       H  0.72686699  0.75171250  0.72652780     0.11500
H1023       H  0.81750785  0.74308963  0.69771240     0.11600
H1024       H  0.78500312  0.78248083  0.68563344     0.13500
H1025       H  0.80000598  0.81079782  0.65983580     0.10000
H1026       H  0.83173557  0.83113654  0.64170555     0.12100
H1027       H  0.87905392  0.78207855  0.67028461     0.08700
H1028       H  0.84788495  0.76216264  0.68862845     0.11500
C1029       C  0.58465068  0.54609065  0.84023931    -0.03100
C1030       C  0.58708940  0.56676843  0.85229476    -0.05700
C1031       C  0.59946078  0.58503267  0.84284681    -0.20800
C1032       C  0.60971951  0.58309367  0.82118641     0.24900
C1033       C  0.60670250  0.56260249  0.80885919    -0.18400
C1034       C  0.59440049  0.54437852  0.81830545    -0.08300
C1035       C  0.62298234  0.60294505  0.81205787    -0.18600
C1036       C  0.63802211  0.60161882  0.79455153    -0.23400
C1037       C  0.65152362  0.62152415  0.78596554     0.27000
C1038       C  0.66056329  0.62075195  0.76369364    -0.20200
C1039       C  0.67347627  0.63904381  0.75507014    -0.09800
C1040       C  0.67800688  0.65829882  0.76870817    -0.10400
C1041       C  0.66904070  0.65904555  0.79099675    -0.03300
C1042       C  0.65613815  0.64085222  0.79959269    -0.18400
H1043       H  0.57984895  0.56872462  0.86919157     0.10700
H1044       H  0.60128840  0.60067230  0.85267560     0.10700
H1045       H  0.61347588  0.56050124  0.79182420     0.10400
H1046       H  0.59245393  0.52895621  0.80821718     0.11500
H1047       H  0.62028006  0.61927645  0.82047914     0.11600
H1048       H  0.64067044  0.58543528  0.78587473     0.13500
H1049       H  0.65744695  0.60603203  0.75286486     0.10000
H1050       H  0.68004286  0.63801150  0.73779508     0.12100
H1051       H  0.67182902  0.67386460  0.80176909     0.08700
H1052       H  0.65014598  0.64199073  0.81704796     0.11500
C1053       C  0.67237247  0.16390552  0.77288912    -0.03100
C1054       C  0.64948642  0.16636291  0.77988341    -0.05700
C1055       C  0.63883514  0.14942499  0.79285095    -0.20800
C1056       C  0.65090467  0.12986755  0.79973468     0.24900
C1057       C  0.67392551  0.12739538  0.79295253    -0.18400
C1058       C  0.68456721  0.14434698  0.77970778    -0.08300
C1059       C  0.63853470  0.11223776  0.81326718    -0.18600
C1060       C  0.64898046  0.09750050  0.82757060    -0.23400
C1061       C  0.63670058  0.07926056  0.84040629     0.27000
C1062       C  0.64910422  0.05988348  0.84724188    -0.20200
C1063       C  0.63829199  0.04179291  0.85846623    -0.09800
C1064       C  0.61477150  0.04269272  0.86341274    -0.10400
C1065       C  0.60244701  0.06249259  0.85743510    -0.03300
C1066       C  0.61328271  0.08061819  0.84601319    -0.18400
H1067       H  0.63980638  0.18157400  0.77550705     0.10700
H1068       H  0.62113350  0.15177352  0.79780752     0.10700
H1069       H  0.68362495  0.11224645  0.79738313     0.10400
H1070       H  0.70218758  0.14199765  0.77451776     0.11500
H1071       H  0.62007420  0.11168899  0.81141485     0.11600
H1072       H  0.66744466  0.09814001  0.82940351     0.13500
H1073       H  0.66718777  0.05850946  0.84346026     0.10000
H1074       H  0.64847588  0.02704299  0.86322232     0.12100
H1075       H  0.58435857  0.06378720  0.86112200     0.08700
H1076       H  0.60326421  0.09561591  0.84174870     0.11500
C1077       C  0.67608902  0.24920872  0.77221821    -0.03100
C1078       C  0.67215014  0.26899824  0.75921355    -0.05700
C1079       C  0.65955036  0.28728567  0.76838872    -0.20800
C1080       C  0.65034487  0.28601973  0.79060187     0.24900
C1081       C  0.65428145  0.26605840  0.80351299    -0.18400
C1082       C  0.66680030  0.24786899  0.79434590    -0.08300
C1083       C  0.63757672  0.30614465  0.79989950    -0.18600
C1084       C  0.62405230  0.30548711  0.81865162    -0.23400
C1085       C  0.61202369  0.32595448  0.82814010     0.27000
C1086       C  0.59306992  0.32282166  0.84260687    -0.20200
C1087       C  0.58130195  0.34169464  0.85172733    -0.09800
C1088       C  0.58830573  0.36414986  0.84661539    -0.10400
C1089       C  0.60772608  0.36720795  0.83274735    -0.03300
C1090       C  0.61947539  0.34842537  0.82371973    -0.18400
H1091       H  0.67900118  0.27041290  0.74207160     0.10700
H1092       H  0.65694531  0.30247444  0.75807221     0.10700
H1093       H  0.64807258  0.26435751  0.82082224     0.10400
H1094       H  0.66905553  0.23256852  0.80457567     0.11500
H1095       H  0.63904421  0.32202822  0.79039391     0.11600
H1096       H  0.62086283  0.28927273  0.82709551     0.13500
H1097       H  0.58715536  0.30569995  0.84663220     0.10000
H1098       H  0.56651521  0.33868018  0.86242370     0.12100
H1099       H  0.61412751  0.38417016  0.82894389     0.08700
H1100       H  0.63457355  0.35169928  0.81358885     0.11500
C1101       C  0.65222880  0.18667013  0.73004296    -0.03100
C1102       C  0.63395130  0.20064586  0.72318864    -0.05700
C1103       C  0.61596806  0.19149639  0.71015865    -0.20800
C1104       C  0.61599876  0.16828214  0.70350960     0.24900
C1105       C  0.63452943  0.15443552  0.71020691    -0.18400
C1106       C  0.65248551  0.16360317  0.72299374    -0.08300
C1107       C  0.59594602  0.15898804  0.69066480    -0.18600
C1108       C  0.59600723  0.13882529  0.67917831    -0.23400
C1109       C  0.57565584  0.12850200  0.66753900     0.27000
C1110       C  0.57799414  0.10686638  0.65709453    -0.20200
C1111       C  0.55921333  0.09593856  0.64688204    -0.09800
C1112       C  0.53756697  0.10636171  0.64699819    -0.10400
C1113       C  0.53533870  0.12821847  0.65688594    -0.03300
C1114       C  0.55404172  0.13915604  0.66700078    -0.18400
H1115       H  0.63333354  0.21848850  0.72825309     0.10700
H1116       H  0.60188632  0.20257681  0.70536567     0.10700
H1117       H  0.63521478  0.13639431  0.70609603     0.10400
H1118       H  0.66665336  0.15250115  0.72744629     0.11500
H1119       H  0.58068348  0.16946547  0.69092656     0.11600
H1120       H  0.61172697  0.12902603  0.67822936     0.13500
H1121       H  0.59437641  0.09817435  0.65714299     0.10000
H1122       H  0.56153262  0.07909592  0.63946928     0.12100
H1123       H  0.51903107  0.13700146  0.65691368     0.08700
H1124       H  0.55112018  0.15580994  0.67445139     0.11500
C1125       C  0.35420104  0.10295128  0.65088977    -0.03100
C1126       C  0.33188783  0.09481063  0.64695180    -0.05700
C1127       C  0.31292022  0.10613997  0.65643400    -0.20800
C1128       C  0.31585796  0.12565993  0.67024173     0.24900
C1129       C  0.33807795  0.13411513  0.67363847    -0.18400
C1130       C  0.35691645  0.12293472  0.66414937    -0.08300
C1131       C  0.29556792  0.13734881  0.68034947    -0.18600
C1132       C  0.29665019  0.14944284  0.70002885    -0.23400
C1133       C  0.27672945  0.16141905  0.71042082     0.27000
C1134       C  0.27636501  0.16491925  0.73420004    -0.20200
C1135       C  0.25763631  0.17555818  0.74466315    -0.09800
C1136       C  0.23903352  0.18309826  0.73147572    -0.10400
C1137       C  0.23989383  0.18078735  0.70762355    -0.03300
C1138       C  0.25852226  0.16996165  0.69715714    -0.18400
H1139       H  0.32904007  0.07960571  0.63674127     0.10700
H1140       H  0.29593330  0.09944731  0.65325830     0.10700
H1141       H  0.34101871  0.14963186  0.68334796     0.10400
H1142       H  0.37360561  0.13024757  0.66723140     0.11500
H1143       H  0.27919771  0.13508064  0.67187074     0.11600
H1144       H  0.31252481  0.14966543  0.70966996     0.13500
H1145       H  0.29032404  0.15883390  0.74477337     0.10000
H1146       H  0.25732685  0.17728497  0.76310217     0.12100
H1147       H  0.22569057  0.18652237  0.69717639     0.08700
H1148       H  0.25858844  0.16828166  0.67873088     0.11500
C1149       C  0.30483020  0.86132481  0.82962083    -0.03100
C1150       C  0.30249567  0.86098249  0.80569546    -0.05700
C1151       C  0.28968418  0.84395001  0.79485481    -0.20800
C1152       C  0.27854039  0.82693135  0.80757306     0.24900
C1153       C  0.28125560  0.82684739  0.83154364    -0.18400
C1154       C  0.29437354  0.84384958  0.84243357    -0.08300
C1155       C  0.26485665  0.80947031  0.79490388    -0.18600
C1156       C  0.24753532  0.79729654  0.80406908    -0.23400
C1157       C  0.23394862  0.78005808  0.79093746     0.27000
C1158       C  0.22278179  0.76252118  0.80297821    -0.20200
C1159       C  0.21099257  0.74522365  0.79132121    -0.09800
C1160       C  0.20997802  0.74514213  0.76734807    -0.10400
C1161       C  0.21973864  0.76347369  0.75527629    -0.03300
C1162       C  0.23172335  0.78071815  0.76691643    -0.18400
H1163       H  0.31060897  0.87392903  0.79522724     0.10700
H1164       H  0.28818336  0.84429644  0.77639175     0.10700
H1165       H  0.27350551  0.81363574  0.84192649     0.10400
H1166       H  0.29589382  0.84361036  0.86088002     0.11500
H1167       H  0.26906185  0.80706347  0.77700498     0.11600
H1168       H  0.24338788  0.79951298  0.82201067     0.13500
H1169       H  0.22381825  0.76177052  0.82145910     0.10000
H1170       H  0.20343459  0.73135044  0.80102588     0.12100
H1171       H  0.21858278  0.76414933  0.73680803     0.08700
H1172       H  0.23914049  0.79446505  0.75700699     0.11500
C1173       C  0.21244579  0.15499682  0.76571484    -0.03100
C1174       C  0.21815547  0.13678604  0.75114703    -0.05700
C1175       C  0.22867312  0.11712585  0.75992641    -0.20800
C1176       C  0.23387917  0.11549810  0.78333219     0.24900
C1177       C  0.22701508  0.13331607  0.79803729    -0.18400
C1178       C  0.21632603  0.15287979  0.78926081    -0.08300
C1179       C  0.24651056  0.09506011  0.79174903    -0.18600
C1180       C  0.26101197  0.09579273  0.80973836    -0.23400
C1181       C  0.27496989  0.07600029  0.81798506     0.27000
C1182       C  0.28729958  0.07832738  0.83851746    -0.20200
C1183       C  0.30079780  0.06033572  0.84691761    -0.09800
C1184       C  0.30236894  0.03951877  0.83491354    -0.10400
C1185       C  0.29022405  0.03732396  0.81422936    -0.03300
C1186       C  0.27676314  0.05524138  0.80586377    -0.18400
H1187       H  0.21512035  0.13812146  0.73291775     0.10700
H1188       H  0.23348896  0.10350477  0.74830100     0.10700
H1189       H  0.22998534  0.13227353  0.81627393     0.10400
H1190       H  0.21189290  0.16677195  0.80072220     0.11500
H1191       H  0.24444864  0.07946977  0.78193853     0.11600
H1192       H  0.26318921  0.11189711  0.81878434     0.13500
H1193       H  0.28643312  0.09414538  0.84818878     0.10000
H1194       H  0.30989399  0.06279961  0.86283953     0.12100
H1195       H  0.29102148  0.02176717  0.80424376     0.08700
H1196       H  0.26813201  0.05256527  0.78976602     0.11500
C1197       C  0.17730561  0.21294112  0.29409749    -0.03100
C1198       C  0.16986864  0.19940822  0.31246774    -0.05700
C1199       C  0.15966631  0.20964999  0.33158008    -0.20800
C1200       C  0.15653521  0.23352968  0.33254252     0.24900
C1201       C  0.16488794  0.24708161  0.31449950    -0.18400
C1202       C  0.17523122  0.23685398  0.29551524    -0.08300
C1203       C  0.14484375  0.24381357  0.35267952    -0.18600
C1204       C  0.13227621  0.26320572  0.35142729    -0.23400
C1205       C  0.11997434  0.27332920  0.37131356     0.27000
C1206       C  0.10070929  0.28724413  0.36745984    -0.20200
C1207       C  0.08882867  0.29717056  0.38578725    -0.09800
C1208       C  0.09609059  0.29353490  0.40841073    -0.10400
C1209       C  0.11568506  0.27996072  0.41216583    -0.03300
C1210       C  0.12748122  0.27002486  0.39390101    -0.18400
H1211       H  0.17163015  0.18093543  0.31184500     0.10700
H1212       H  0.15370997  0.19885923  0.34540954     0.10700
H1213       H  0.16350785  0.26557407  0.31501753     0.10400
H1214       H  0.18107682  0.24759938  0.28159561     0.11500
H1215       H  0.14542784  0.23426671  0.36859846     0.11600
H1216       H  0.12985638  0.27139929  0.33492970     0.13500
H1217       H  0.09468212  0.29025398  0.35019804     0.10000
H1218       H  0.07385340  0.30748181  0.38221442     0.12100
H1219       H  0.12222520  0.27713980  0.42923376     0.08700
H1220       H  0.14271189  0.26013486  0.39756086     0.11500
C1221       C  0.17413331  0.22009116  0.70547525    -0.03100
C1222       C  0.17413851  0.24413835  0.70555777    -0.05700
C1223       C  0.16314509  0.25640492  0.68821675    -0.20800
C1224       C  0.15170844  0.24494120  0.67049134     0.24900
C1225       C  0.15291148  0.22079779  0.66962111    -0.18400
C1226       C  0.16419560  0.20851337  0.68689913    -0.08300
C1227       C  0.13884529  0.25884886  0.65337808    -0.18600
C1228       C  0.12085581  0.25079431  0.64140487    -0.23400
C1229       C  0.10788283  0.26457687  0.62429525     0.27000
C1230       C  0.09666892  0.25290163  0.60658644    -0.20200
C1231       C  0.08526470  0.26494888  0.58939659    -0.09800
C1232       C  0.08429281  0.28899059  0.58975915    -0.10400
C1233       C  0.09434150  0.30079930  0.60811079    -0.03300
C1234       C  0.10620391  0.28870336  0.62520398    -0.18400
H1235       H  0.18180913  0.25347724  0.71961696     0.10700
H1236       H  0.16285496  0.27496110  0.68912321     0.10700
H1237       H  0.14517618  0.21133511  0.65572376     0.10400
H1238       H  0.16456738  0.18996447  0.68611350     0.11500
H1239       H  0.14401535  0.27659092  0.65120810     0.11600
H1240       H  0.11566643  0.23306584  0.64360981     0.13500
H1241       H  0.09736597  0.23436557  0.60562309     0.10000
H1242       H  0.07751506  0.25544371  0.57548545     0.12100
H1243       H  0.09385521  0.31934584  0.60870010     0.08700
H1244       H  0.11401359  0.29827438  0.63899814     0.11500
C1245       C  0.02919942  0.11418069  0.64514112    -0.03100
C1246       C  0.02640825  0.13735043  0.65119458    -0.05700
C1247       C  0.04332324  0.14897942  0.66337089    -0.20800
C1248       C  0.06338414  0.13775186  0.67016980     0.24900
C1249       C  0.06650366  0.11461953  0.66386727    -0.18400
C1250       C  0.04957044  0.10297505  0.65132955    -0.08300
C1251       C  0.08084711  0.15124131  0.68289321    -0.18600
C1252       C  0.09581146  0.14206623  0.69785371    -0.23400
C1253       C  0.11349717  0.15574079  0.71023961     0.27000
C1254       C  0.13262660  0.14424358  0.71915397    -0.20200
C1255       C  0.15050656  0.15644776  0.72933457    -0.09800
C1256       C  0.14962264  0.18042626  0.73087809    -0.10400
C1257       C  0.12989616  0.19192257  0.72349113    -0.03300
C1258       C  0.11197959  0.17972633  0.71320198    -0.18400
H1259       H  0.01111417  0.14666177  0.64641324     0.10700
H1260       H  0.04059549  0.16682562  0.66772240     0.10700
H1261       H  0.08206902  0.10559897  0.66827777     0.10400
H1262       H  0.05219828  0.08515230  0.64689176     0.11500
H1263       H  0.08084922  0.16958762  0.67997037     0.11600
H1264       H  0.09565040  0.12367304  0.70067657     0.13500
H1265       H  0.13411899  0.12579980  0.71753512     0.10000
H1266       H  0.16549120  0.14721644  0.73518782     0.12100
H1267       H  0.12866810  0.21038192  0.72508570     0.08700
H1268       H  0.09713970  0.18923039  0.70757851     0.11500
C1269       C  0.85030495  0.10118025  0.65034410    -0.03100
C1270       C  0.82808123  0.09332323  0.64559726    -0.05700
C1271       C  0.80920208  0.10271892  0.65700905    -0.20800
C1272       C  0.81213616  0.11999451  0.67351738     0.24900
C1273       C  0.83436743  0.12780271  0.67823652    -0.18400
C1274       C  0.85314032  0.11841137  0.66696363    -0.08300
C1275       C  0.79166751  0.13051809  0.68438112    -0.18600
C1276       C  0.79248844  0.14261571  0.70406892    -0.23400
C1277       C  0.77273349  0.15538197  0.71383877     0.27000
C1278       C  0.77406196  0.16340064  0.73650620    -0.20200
C1279       C  0.75647272  0.17675924  0.74585767    -0.09800
C1280       C  0.73736310  0.18254555  0.73257674    -0.10400
C1281       C  0.73575490  0.17404219  0.71014378    -0.03300
C1282       C  0.75330391  0.16091700  0.70075709    -0.18400
H1283       H  0.82517543  0.08019273  0.63285603     0.10700
H1284       H  0.79222670  0.09657727  0.65281739     0.10700
H1285       H  0.83746859  0.14162600  0.69015552     0.10400
H1286       H  0.86983834  0.12502914  0.67127572     0.11500
H1287       H  0.77544572  0.12794521  0.67576739     0.11600
H1288       H  0.80833915  0.14329151  0.71369907     0.13500
H1289       H  0.78888090  0.15950276  0.74694935     0.10000
H1290       H  0.75801054  0.18293361  0.76325077     0.12100
H1291       H  0.72085613  0.17765303  0.69972036     0.08700
H1292       H  0.75162107  0.15567795  0.68312516     0.11500
C1293       C  0.24189853  0.17848394  0.27133559    -0.03100
C1294       C  0.26059526  0.19280630  0.27598160    -0.05700
C1295       C  0.27903088  0.18477872  0.28914472    -0.20800
C1296       C  0.27892408  0.16246796  0.29834271     0.24900
C1297       C  0.26012571  0.14817334  0.29353650    -0.18400
C1298       C  0.24184906  0.15614844  0.28032678    -0.08300
C1299       C  0.29890537  0.15456262  0.31226384    -0.18600
C1300       C  0.29811494  0.13667953  0.32698802    -0.23400
C1301       C  0.31800964  0.12821487  0.34066767     0.27000
C1302       C  0.31708180  0.10600623  0.34998178    -0.20200
C1303       C  0.33534030  0.09719304  0.36282947    -0.09800
C1304       C  0.35501153  0.11043647  0.36681990    -0.10400
C1305       C  0.35566408  0.13291091  0.35799858    -0.03300
C1306       C  0.33745238  0.14169066  0.34512227    -0.18400
H1307       H  0.26105202  0.21008920  0.26925308     0.10700
H1308       H  0.29334342  0.19611831  0.29234033     0.10700
H1309       H  0.25946754  0.13068455  0.29956554     0.10400
H1310       H  0.22748636  0.14483270  0.27725732     0.11500
H1311       H  0.31470809  0.16403433  0.31022046     0.11600
H1312       H  0.28223220  0.12737444  0.32910793     0.13500
H1313       H  0.30225513  0.09527941  0.34705429     0.10000
H1314       H  0.33411050  0.07986431  0.36930787     0.12100
H1315       H  0.37022002  0.14391173  0.36104296     0.08700
H1316       H  0.33866540  0.15914824  0.33904231     0.11500
C1317       C  0.64401040  0.18868095  0.26977865    -0.03100
C1318       C  0.62550958  0.20270884  0.27590633    -0.05700
C1319       C  0.60785282  0.19409769  0.28968860    -0.20800
C1320       C  0.60851538  0.17143919  0.29796802     0.24900
C1321       C  0.62709361  0.15744333  0.29172616    -0.18400
C1322       C  0.64462611  0.16601503  0.27795614    -0.08300
C1323       C  0.58912778  0.16275118  0.31216319    -0.18600
C1324       C  0.59065855  0.14441819  0.32628759    -0.23400
C1325       C  0.57121344  0.13474328  0.33982569     0.27000
C1326       C  0.57386506  0.11308072  0.35009227    -0.20200
C1327       C  0.55600301  0.10300005  0.36253050    -0.09800
C1328       C  0.53497498  0.11438457  0.36512048    -0.10400
C1329       C  0.53252949  0.13630046  0.35528569    -0.03300
C1330       C  0.55033582  0.14635212  0.34287184    -0.18400
H1331       H  0.62454683  0.22021186  0.26981679     0.10700
H1332       H  0.59365756  0.20521883  0.29399592     0.10700
H1333       H  0.62808557  0.13972578  0.29703498     0.10400
H1334       H  0.65885290  0.15487440  0.27381306     0.11500
H1335       H  0.57313778  0.17200496  0.31068165     0.11600
H1336       H  0.60692471  0.13563795  0.32793599     0.13500
H1337       H  0.58977221  0.10373946  0.34824564     0.10000
H1338       H  0.55864850  0.08617296  0.36984496     0.12100
H1339       H  0.51685548  0.14593818  0.35716064     0.08700
H1340       H  0.54752571  0.16328987  0.33597178     0.11500
C1341       C  0.73044088  0.18715777  0.26490079    -0.03100
C1342       C  0.74903393  0.18201664  0.25067848    -0.05700
C1343       C  0.76738780  0.16896346  0.25899036    -0.20800
C1344       C  0.76725507  0.16040073  0.28148042     0.24900
C1345       C  0.74863144  0.16574341  0.29571325    -0.18400
C1346       C  0.73042758  0.17885831  0.28745975    -0.08300
C1347       C  0.78713931  0.14672507  0.28974133    -0.18600
C1348       C  0.78594547  0.13151242  0.30714310    -0.23400
C1349       C  0.80593850  0.11835776  0.31610596     0.27000
C1350       C  0.80452927  0.10838380  0.33796283    -0.20200
C1351       C  0.82326204  0.09673699  0.34745882    -0.09800
C1352       C  0.84383674  0.09480715  0.33524839    -0.10400
C1353       C  0.84489457  0.10392855  0.31301068    -0.03300
C1354       C  0.82621448  0.11545585  0.30351050    -0.18400
H1355       H  0.74945274  0.18824976  0.23324425     0.10700
H1356       H  0.78164052  0.16532843  0.24774313     0.10700
H1357       H  0.74811959  0.16016224  0.31333027     0.10400
H1358       H  0.71612883  0.18232230  0.29870106     0.11500
H1359       H  0.80320193  0.14944253  0.28093846     0.11600
H1360       H  0.76971474  0.12879573  0.31568421     0.13500
H1361       H  0.78903484  0.11006017  0.34796223     0.10000
H1362       H  0.82183221  0.08987036  0.36458633     0.12100
H1363       H  0.86023278  0.10221259  0.30281920     0.08700
H1364       H  0.82786028  0.12188328  0.28627299     0.11500
C1365       C  0.56709441  0.36696696  0.17033897    -0.03100
C1366       C  0.57366482  0.36923422  0.19339779    -0.05700
C1367       C  0.58617566  0.35203610  0.20433017    -0.20800
C1368       C  0.59259424  0.33216250  0.19253664     0.24900
C1369       C  0.58511865  0.32929782  0.16977306    -0.18400
C1370       C  0.57250795  0.34655333  0.15880007    -0.08300
C1371       C  0.60695922  0.31492750  0.20466199    -0.18600
C1372       C  0.62097095  0.30028000  0.19373503    -0.23400
C1373       C  0.63554542  0.28301638  0.20548634     0.27000
C1374       C  0.64188135  0.26345080  0.19317554    -0.20200
C1375       C  0.65568071  0.24672424  0.20311065    -0.09800
C1376       C  0.66415965  0.24938766  0.22548487    -0.10400
C1377       C  0.65784611  0.26894210  0.23796922    -0.03300
C1378       C  0.64369876  0.28569803  0.22804950    -0.18400
H1379       H  0.56936992  0.38442786  0.20308409     0.10700
H1380       H  0.59132851  0.35452933  0.22195822     0.10700
H1381       H  0.58891764  0.31381043  0.16035084     0.10400
H1382       H  0.56753865  0.34411630  0.14113819     0.11500
H1383       H  0.60642681  0.31489302  0.22321184     0.11600
H1384       H  0.62158013  0.30044763  0.17519183     0.13500
H1385       H  0.63581833  0.26089941  0.17584075     0.10000
H1386       H  0.65950986  0.23148657  0.19326500     0.12100
H1387       H  0.66408418  0.27141643  0.25523595     0.08700
H1388       H  0.63960220  0.30083248  0.23790419     0.11500
C1389       C  0.80096032  0.60969468  0.08731054    -0.03100
C1390       C  0.80496260  0.60308088  0.11006646    -0.05700
C1391       C  0.79335377  0.61387126  0.12807946    -0.20800
C1392       C  0.77728557  0.63130192  0.12378621     0.24900
C1393       C  0.77330047  0.63792974  0.10103138    -0.18400
C1394       C  0.78490382  0.62722374  0.08308497    -0.08300
C1395       C  0.76576755  0.64278070  0.14343806    -0.18600
C1396       C  0.74568442  0.65414826  0.14177307    -0.23400
C1397       C  0.73435992  0.66542772  0.16161966     0.27000
C1398       C  0.71043948  0.66805022  0.16162059    -0.20200
C1399       C  0.69922460  0.67784195  0.18041144    -0.09800
C1400       C  0.71181914  0.68545796  0.19938501    -0.10400
C1401       C  0.73574716  0.68388158  0.19894904    -0.03300
C1402       C  0.74694018  0.67394068  0.18030817    -0.18400
H1403       H  0.81727657  0.58980842  0.11403250     0.10700
H1404       H  0.79693552  0.60856017  0.14546326     0.10700
H1405       H  0.76160165  0.65169969  0.09694149     0.10400
H1406       H  0.78116288  0.63284821  0.06587869     0.11500
H1407       H  0.77375740  0.64091583  0.16009453     0.11600
H1408       H  0.73646378  0.65417863  0.12566731     0.13500
H1409       H  0.70036572  0.66198968  0.14728781     0.10000
H1410       H  0.68074620  0.67913036  0.18031259     0.12100
H1411       H  0.74576730  0.68973014  0.21340854     0.08700
H1412       H  0.76541966  0.67301030  0.18060089     0.11500
C1413       C  0.67467793  0.65943721  0.22543418    -0.03100
C1414       C  0.68692985  0.63953013  0.21992128    -0.05700
C1415       C  0.67556384  0.62053387  0.21062800    -0.20800
C1416       C  0.65190094  0.62132492  0.20631919     0.24900
C1417       C  0.63965371  0.64118216  0.21240857    -0.18400
C1418       C  0.65096426  0.65999900  0.22194951    -0.08300
C1419       C  0.64032199  0.60096683  0.19624294    -0.18600
C1420       C  0.62125051  0.60249698  0.18328709    -0.23400
C1421       C  0.60890217  0.58228723  0.17378552     0.27000
C1422       C  0.59443337  0.58526115  0.15481268    -0.20200
C1423       C  0.58163733  0.56690981  0.14611117    -0.09800
C1424       C  0.58281569  0.54515363  0.15637207    -0.10400
C1425       C  0.59738910  0.54222294  0.17536035    -0.03300
C1426       C  0.61020759  0.56051494  0.18398490    -0.18400
H1427       H  0.70524991  0.63881541  0.22259219     0.10700
H1428       H  0.68533114  0.60533400  0.20639269     0.10700
H1429       H  0.62131897  0.64216153  0.21007212     0.10400
H1430       H  0.64126331  0.67525326  0.22618665     0.11500
H1431       H  0.64836138  0.58440202  0.19885707     0.11600
H1432       H  0.61464136  0.61932161  0.17886478     0.13500
H1433       H  0.59294492  0.60190447  0.14673232     0.10000
H1434       H  0.57059653  0.56992429  0.13156496     0.12100
H1435       H  0.59893017  0.52582007  0.18381418     0.08700
H1436       H  0.62061652  0.55760244  0.19900459     0.11500
C1437       C  0.85426479  0.81952592  0.32611598    -0.03100
C1438       C  0.85426224  0.81713031  0.30220468    -0.05700
C1439       C  0.83755337  0.80408606  0.29118477    -0.20800
C1440       C  0.82030143  0.79304912  0.30365384     0.24900
C1441       C  0.82000665  0.79573299  0.32766058    -0.18400
C1442       C  0.83675094  0.80898070  0.33871845    -0.08300
C1443       C  0.80381521  0.77830739  0.29079397    -0.18600
C1444       C  0.78404179  0.77024017  0.29944037    -0.23400
C1445       C  0.76756047  0.75522661  0.28682958     0.27000
C1446       C  0.74752846  0.74870432  0.29826575    -0.20200
C1447       C  0.73151215  0.73447062  0.28778264    -0.09800
C1448       C  0.73512630  0.72602075  0.26556144    -0.10400
C1449       C  0.75481012  0.73283321  0.25373047    -0.03300
C1450       C  0.77099256  0.74717988  0.26426762    -0.18400
H1451       H  0.86730256  0.82524887  0.29189980     0.10700
H1452       H  0.83827503  0.80243709  0.27273991     0.10700
H1453       H  0.80741592  0.78720761  0.33813226     0.10400
H1454       H  0.83643704  0.81029707  0.35718499     0.11500
H1455       H  0.80830025  0.77439042  0.27326535     0.11600
H1456       H  0.77928898  0.77499388  0.31671364     0.13500
H1457       H  0.74416312  0.75470124  0.31547444     0.10000
H1458       H  0.71606373  0.73024504  0.29706924     0.12100
H1459       H  0.75780919  0.72684189  0.23646597     0.08700
H1460       H  0.78601943  0.75168493  0.25456956     0.11500
C1461       C  0.71539524  0.22391736  0.79623431    -0.03100
C1462       C  0.71836883  0.20995177  0.81551526    -0.05700
C1463       C  0.73122047  0.21774330  0.83421504    -0.20800
C1464       C  0.74170657  0.23944695  0.83383800     0.24900
C1465       C  0.73855458  0.25343136  0.81446833    -0.18400
C1466       C  0.72566128  0.24568082  0.79589378    -0.08300
C1467       C  0.75509458  0.24711224  0.85419110    -0.18600
C1468       C  0.77075627  0.26413632  0.85365978    -0.23400
C1469       C  0.78367211  0.27244393  0.87404430     0.27000
C1470       C  0.79385355  0.29424128  0.87317586    -0.20200
C1471       C  0.80609371  0.30288001  0.89187141    -0.09800
C1472       C  0.80857783  0.28984385  0.91191432    -0.10400
C1473       C  0.79873157  0.26783621  0.91263708    -0.03300
C1474       C  0.78649740  0.25920290  0.89395338    -0.18400
H1475       H  0.71063045  0.19310414  0.81617683     0.10700
H1476       H  0.73315444  0.20668253  0.84896543     0.10700
H1477       H  0.74565500  0.27049855  0.81356582     0.10400
H1478       H  0.72393398  0.25665576  0.78105400     0.11500
H1479       H  0.75174060  0.23824919  0.87012167     0.11600
H1480       H  0.77417911  0.27287969  0.83768158     0.13500
H1481       H  0.79211738  0.30477522  0.85802130     0.10000
H1482       H  0.81334482  0.31989114  0.89064319     0.12100
H1483       H  0.80061169  0.25705561  0.92756253     0.08700
H1484       H  0.77968059  0.24202942  0.89516516     0.11500
C1485       C  0.80183666  0.29454826  0.09080134    -0.03100
C1486       C  0.80359408  0.30387062  0.11287853    -0.05700
C1487       C  0.78994160  0.29547502  0.13069873    -0.20800
C1488       C  0.77419431  0.27762461  0.12691249     0.24900
C1489       C  0.77225182  0.26857689  0.10470042    -0.18400
C1490       C  0.78591643  0.27686222  0.08700479    -0.08300
C1491       C  0.75995717  0.26939895  0.14644195    -0.18600
C1492       C  0.74601301  0.25091234  0.14568042    -0.23400
C1493       C  0.73190440  0.24296192  0.16533753     0.27000
C1494       C  0.72366736  0.22030003  0.16540811    -0.20200
C1495       C  0.71064457  0.21203473  0.18372795    -0.09800
C1496       C  0.70536479  0.22638052  0.20222219    -0.10400
C1497       C  0.71325984  0.24914845  0.20196838    -0.03300
C1498       C  0.72614679  0.25742584  0.18368929    -0.18400
H1499       H  0.81560155  0.31750791  0.11647878     0.10700
H1500       H  0.79174494  0.30295609  0.14756180     0.10700
H1501       H  0.76009837  0.25530694  0.10053762     0.10400
H1502       H  0.78360761  0.26943662  0.07023242     0.11500
H1503       H  0.76166215  0.27881238  0.16233267     0.11600
H1504       H  0.74532424  0.24039838  0.13045632     0.13500
H1505       H  0.72757800  0.20884950  0.15136808     0.10000
H1506       H  0.70468798  0.19446310  0.18340377     0.12100
H1507       H  0.70978740  0.26053792  0.21616511     0.08700
H1508       H  0.73138635  0.27518684  0.18409263     0.11500
C1509       C  0.60737775  0.04835662  0.12951209    -0.03100
C1510       C  0.63127656  0.04896828  0.13221011    -0.05700
C1511       C  0.64182311  0.06685526  0.14408214    -0.20800
C1512       C  0.62881419  0.08453718  0.15379938     0.24900
C1513       C  0.60493666  0.08458690  0.15016324    -0.18400
C1514       C  0.59435503  0.06666616  0.13811771    -0.08300
C1515       C  0.64095104  0.10227880  0.16763929    -0.18600
C1516       C  0.63060715  0.11561575  0.18334192    -0.23400
C1517       C  0.64284128  0.13270902  0.19779044     0.27000
C1518       C  0.63038588  0.15137406  0.20627118    -0.20200
C1519       C  0.64083463  0.16776058  0.22016016    -0.09800
C1520       C  0.66395467  0.16562201  0.22656312    -0.10400
C1521       C  0.67650928  0.14687445  0.21818959    -0.03300
C1522       C  0.66607063  0.13052491  0.20396442    -0.18400
H1523       H  0.64193249  0.03544973  0.12534262     0.10700
H1524       H  0.66023478  0.06653183  0.14620026     0.10700
H1525       H  0.59429350  0.09830859  0.15657166     0.10400
H1526       H  0.57594387  0.06681762  0.13615268     0.11500
H1527       H  0.65930996  0.10376016  0.16529247     0.11600
H1528       H  0.61226186  0.11434664  0.18573867     0.13500
H1529       H  0.61252368  0.15352671  0.20178337     0.10000
H1530       H  0.63082733  0.18242661  0.22549420     0.12100
H1531       H  0.69433923  0.14475915  0.22275125     0.08700
H1532       H  0.67611200  0.11605121  0.19823420     0.11500
C1533       C  0.61240944  0.86733180  0.13235213    -0.03100
C1534       C  0.63623831  0.86804936  0.13567117    -0.05700
C1535       C  0.64755077  0.85052057  0.14744433    -0.20800
C1536       C  0.63540238  0.83186434  0.15643793     0.24900
C1537       C  0.61159858  0.83072690  0.15248939    -0.18400
C1538       C  0.60026767  0.84827440  0.14058327    -0.08300
C1539       C  0.64833623  0.81399371  0.16946854    -0.18600
C1540       C  0.63847957  0.79929677  0.18426075    -0.23400
C1541       C  0.65097526  0.78131815  0.19748123     0.27000
C1542       C  0.63820800  0.76301134  0.20623261    -0.20200
C1543       C  0.64863556  0.74579033  0.21907134    -0.09800
C1544       C  0.67216643  0.74658381  0.22418161    -0.10400
C1545       C  0.68512592  0.76485490  0.21538474    -0.03300
C1546       C  0.67465748  0.78210212  0.20218142    -0.18400
H1547       H  0.64626601  0.88221156  0.12920042     0.10700
H1548       H  0.66588571  0.85174829  0.14985198     0.10700
H1549       H  0.60158647  0.81631791  0.15834455     0.10400
H1550       H  0.58194099  0.84710207  0.13823254     0.11500
H1551       H  0.66671573  0.81336761  0.16701992     0.11600
H1552       H  0.62012716  0.80006548  0.18679694     0.13500
H1553       H  0.62001442  0.76182722  0.20285658     0.10000
H1554       H  0.63817818  0.73158334  0.22472000     0.12100
H1555       H  0.70326641  0.76600025  0.21893399     0.08700
H1556       H  0.68508346  0.79614424  0.19615283     0.11500
C1557       C  0.17084077  0.68731916  0.20901812    -0.03100
C1558       C  0.16556236  0.70207806  0.19084249    -0.05700
C1559       C  0.15235379  0.69422900  0.17243391    -0.20800
C1560       C  0.14397432  0.67163461  0.17204883     0.24900
C1561       C  0.14923389  0.65699045  0.19041995    -0.18400
C1562       C  0.16224751  0.66485027  0.20875309    -0.08300
C1563       C  0.13128090  0.66337050  0.15160770    -0.18600
C1564       C  0.11788066  0.64453260  0.15175881    -0.23400
C1565       C  0.10786500  0.63370694  0.13098910     0.27000
C1566       C  0.09276155  0.61517150  0.13379851    -0.20200
C1567       C  0.08463261  0.60294592  0.11488350    -0.09800
C1568       C  0.09159253  0.60892274  0.09272525    -0.10400
C1569       C  0.10613243  0.62786632  0.08983637    -0.03300
C1570       C  0.11424108  0.64007721  0.10868295    -0.18400
H1571       H  0.17198305  0.71948068  0.19066291     0.10700
H1572       H  0.14878773  0.70578694  0.15837479     0.10700
H1573       H  0.14389587  0.63926322  0.19060130     0.10400
H1574       H  0.16566747  0.65323655  0.22279663     0.11500
H1575       H  0.13341832  0.67318397  0.13603507     0.11600
H1576       H  0.11434187  0.63609256  0.16789650     0.13500
H1577       H  0.08764119  0.60975988  0.15075766     0.10000
H1578       H  0.07351917  0.58838582  0.11769226     0.12100
H1579       H  0.11155990  0.63317810  0.07297285     0.08700
H1580       H  0.12601549  0.65395027  0.10547460     0.11500
C1581       C  0.16986593  0.68293456  0.79299351    -0.03100
C1582       C  0.14602945  0.68043633  0.79299748    -0.05700
C1583       C  0.13508924  0.66893720  0.81086317    -0.20800
C1584       C  0.14778591  0.65950079  0.82894961     0.24900
C1585       C  0.17164463  0.66301229  0.82945930    -0.18400
C1586       C  0.18255326  0.67465789  0.81161608    -0.08300
C1587       C  0.13547031  0.64626370  0.84687348    -0.18600
C1588       C  0.14548565  0.62999343  0.85982541    -0.23400
C1589       C  0.13325044  0.61685213  0.87783910     0.27000
C1590       C  0.14595108  0.60822493  0.89628028    -0.20200
C1591       C  0.13517101  0.59645432  0.91403448    -0.09800
C1592       C  0.11145608  0.59260078  0.91354124    -0.10400
C1593       C  0.09879669  0.60031677  0.89462464    -0.03300
C1594       C  0.10956070  0.61244543  0.87695841    -0.18400
H1595       H  0.13598280  0.68643688  0.77863320     0.10700
H1596       H  0.11670335  0.66670201  0.81014411     0.10700
H1597       H  0.18197259  0.65680319  0.84349855     0.10400
H1598       H  0.20096439  0.67664762  0.81201661     0.11500
H1599       H  0.11735729  0.64975421  0.84898899     0.11600
H1600       H  0.16358519  0.62645127  0.85774255     0.13500
H1601       H  0.16424122  0.61106494  0.89722136     0.10000
H1602       H  0.14543469  0.59042462  0.92824072     0.12100
H1603       H  0.08050437  0.59754822  0.89379489     0.08700
H1604       H  0.09931627  0.61817805  0.86264398     0.11500
C1605       C  0.80053160  0.60988496  0.58476915    -0.03100
C1606       C  0.79378521  0.63284428  0.58196016    -0.05700
C1607       C  0.78361505  0.64488982  0.59980731    -0.20800
C1608       C  0.77958787  0.63427979  0.62087306     0.24900
C1609       C  0.78657137  0.61136207  0.62399463    -0.18400
C1610       C  0.79710341  0.59929498  0.60607503    -0.08300
C1611       C  0.76864302  0.64814672  0.63909870    -0.18600
C1612       C  0.75505282  0.63929648  0.65541191    -0.23400
C1613       C  0.74302600  0.65360751  0.67275118     0.27000
C1614       C  0.73526298  0.64303726  0.69284732    -0.20200
C1615       C  0.72426117  0.65584111  0.70976024    -0.09800
C1616       C  0.72069208  0.67941834  0.70687850    -0.10400
C1617       C  0.72780673  0.69003604  0.68664673    -0.03300
C1618       C  0.73875505  0.67723543  0.66963573    -0.18400
H1619       H  0.79651881  0.64171952  0.56594537     0.10700
H1620       H  0.77861197  0.66255327  0.59704051     0.10700
H1621       H  0.78421896  0.60285766  0.64026693     0.10400
H1622       H  0.80217906  0.58164853  0.60874231     0.11500
H1623       H  0.77122774  0.66650541  0.63820327     0.11600
H1624       H  0.75262342  0.62087907  0.65621373     0.13500
H1625       H  0.73812497  0.62492556  0.69566422     0.10000
H1626       H  0.71916367  0.64744929  0.72548201     0.12100
H1627       H  0.72507114  0.70821528  0.68414531     0.08700
H1628       H  0.74360211  0.68599160  0.65408957     0.11500
C1629       C  0.71456281  0.68310142  0.28758590    -0.03100
C1630       C  0.70112228  0.67839304  0.30686054    -0.05700
C1631       C  0.71028817  0.66610235  0.32534055    -0.20800
C1632       C  0.73288463  0.65780030  0.32473628     0.24900
C1633       C  0.74629409  0.66246263  0.30533514    -0.18400
C1634       C  0.73721167  0.67493614  0.28700584    -0.08300
C1635       C  0.74226910  0.64560059  0.34512747    -0.18600
C1636       C  0.76001461  0.63073485  0.34436870    -0.23400
C1637       C  0.77022126  0.61984866  0.36513908     0.27000
C1638       C  0.78273220  0.59934840  0.36301873    -0.20200
C1639       C  0.79355116  0.58942103  0.38206818    -0.09800
C1640       C  0.79228313  0.59991551  0.40368327    -0.10400
C1641       C  0.77970078  0.62042936  0.40570003    -0.03300
C1642       C  0.76890625  0.63026644  0.38676019    -0.18400
H1643       H  0.68366416  0.68452505  0.30779373     0.10700
H1644       H  0.69965072  0.66299889  0.34016728     0.10700
H1645       H  0.76393270  0.65693923  0.30440048     0.10400
H1646       H  0.74788867  0.67806954  0.27221124     0.11500
H1647       H  0.73371806  0.64864865  0.36129993     0.11600
H1648       H  0.76715991  0.62595355  0.32792717     0.13500
H1649       H  0.78420538  0.59101754  0.34653442     0.10000
H1650       H  0.80297864  0.57362361  0.37978621     0.12100
H1651       H  0.77846711  0.62937330  0.42182438     0.08700
H1652       H  0.76016178  0.64643997  0.38908400     0.11500
C1653       C  0.28521657  0.85872845  0.13705372    -0.03100
C1654       C  0.29888567  0.83951299  0.14193261    -0.05700
C1655       C  0.29030059  0.82140984  0.15513510    -0.20800
C1656       C  0.26792617  0.82209433  0.16389770     0.24900
C1657       C  0.25411652  0.84114243  0.15866781    -0.18400
C1658       C  0.26267594  0.85919328  0.14549560    -0.08300
C1659       C  0.25942716  0.80229876  0.17763765    -0.18600
C1660       C  0.24145841  0.80348344  0.19213470    -0.23400
C1661       C  0.23260168  0.78372023  0.20571853     0.27000
C1662       C  0.21055633  0.78522394  0.21525156    -0.20200
C1663       C  0.20152027  0.76718934  0.22823470    -0.09800
C1664       C  0.21446541  0.74735337  0.23222386    -0.10400
C1665       C  0.23647583  0.74577369  0.22265065    -0.03300
C1666       C  0.24553888  0.76377030  0.20976498    -0.18400
H1667       H  0.31630429  0.83850330  0.13579475     0.10700
H1668       H  0.30127593  0.80687055  0.15868321     0.10700
H1669       H  0.23652550  0.84209422  0.16424382     0.10400
H1670       H  0.25139045  0.87340397  0.14177053     0.11500
H1671       H  0.26858927  0.78628435  0.17563530     0.11600
H1672       H  0.23248550  0.81960982  0.19417790     0.13500
H1673       H  0.20021022  0.80038178  0.21252614     0.10000
H1674       H  0.18449519  0.76884843  0.23532715     0.12100
H1675       H  0.24667693  0.73045280  0.22496706     0.08700
H1676       H  0.26274556  0.76190677  0.20330098     0.11500
C1677       C  0.27864873  0.03810895  0.13167200    -0.03100
C1678       C  0.25488078  0.03812107  0.13526794    -0.05700
C1679       C  0.24444233  0.05546548  0.14798277    -0.20800
C1680       C  0.25746150  0.07312721  0.15773226     0.24900
C1681       C  0.28121883  0.07362734  0.15349516    -0.18400
C1682       C  0.29167461  0.05628738  0.14054443    -0.08300
C1683       C  0.24539010  0.09052499  0.17199858    -0.18600
C1684       C  0.25584002  0.10398291  0.18753039    -0.23400
C1685       C  0.24347748  0.12110190  0.20176755     0.27000
C1686       C  0.25531681  0.14072227  0.20883811    -0.20200
C1687       C  0.24449016  0.15739256  0.22205893    -0.09800
C1688       C  0.22166895  0.15460472  0.22916307    -0.10400
C1689       C  0.20976881  0.13487092  0.22229154    -0.03300
C1690       C  0.22058920  0.11819127  0.20877746    -0.18400
H1691       H  0.24425295  0.02461155  0.12832078     0.10700
H1692       H  0.22611782  0.05479362  0.15061821     0.10700
H1693       H  0.29183661  0.08731978  0.16001159     0.10400
H1694       H  0.31000164  0.05680403  0.13798678     0.11500
H1695       H  0.22697767  0.09182857  0.16995020     0.11600
H1696       H  0.27424058  0.10305827  0.18964165     0.13500
H1697       H  0.27289931  0.14341469  0.20368082     0.10000
H1698       H  0.25393723  0.17276532  0.22635769     0.12100
H1699       H  0.19219090  0.13228345  0.22744522     0.08700
H1700       H  0.21111100  0.10295692  0.20413056     0.11500
C1701       C  0.10019649  0.29194100  0.91853351    -0.03100
C1702       C  0.11841578  0.27728921  0.92425798    -0.05700
C1703       C  0.13186765  0.26729806  0.90725377    -0.20800
C1704       C  0.12724430  0.27132624  0.88407652     0.24900
C1705       C  0.10935292  0.28646649  0.87825101    -0.18400
C1706       C  0.09603244  0.29676466  0.89536626    -0.08300
C1707       C  0.14172013  0.25958728  0.86672075    -0.18600
C1708       C  0.13448077  0.25448784  0.84544256    -0.23400
C1709       C  0.14839694  0.24151562  0.82842446     0.27000
C1710       C  0.13714248  0.23150283  0.80969869    -0.20200
C1711       C  0.14948934  0.22033949  0.79254514    -0.09800
C1712       C  0.17341913  0.21914280  0.79360297    -0.10400
C1713       C  0.18475567  0.22823672  0.81271138    -0.03300
C1714       C  0.17242185  0.23954760  0.82987182    -0.18400
H1715       H  0.12238029  0.27355418  0.94195377     0.10700
H1716       H  0.14571554  0.25599894  0.91224647     0.10700
H1717       H  0.10570490  0.29053874  0.86057396     0.10400
H1718       H  0.08218122  0.30808090  0.89047021     0.11500
H1719       H  0.15828222  0.25345198  0.87243075     0.11600
H1720       H  0.11711819  0.25895102  0.84053809     0.13500
H1721       H  0.11870812  0.23270596  0.80809190     0.10000
H1722       H  0.14040969  0.21354999  0.77788060     0.12100
H1723       H  0.20324209  0.22748271  0.81383374     0.08700
H1724       H  0.18191393  0.24736685  0.84367207     0.11500
C1725       C  0.08502057  0.28598787  0.09360458    -0.03100
C1726       C  0.08009741  0.26293074  0.09821779    -0.05700
C1727       C  0.09224799  0.25098037  0.11496466    -0.20800
C1728       C  0.11007398  0.26157935  0.12706820     0.24900
C1729       C  0.11487255  0.28485590  0.12270267    -0.18400
C1730       C  0.10227359  0.29702198  0.10620224    -0.08300
C1731       C  0.12245974  0.24785137  0.14461558    -0.18600
C1732       C  0.14423744  0.25175373  0.15117756    -0.23400
C1733       C  0.15617012  0.23772281  0.16892111     0.27000
C1734       C  0.18021307  0.23737057  0.16948740    -0.20200
C1735       C  0.19191384  0.22590315  0.18702677    -0.09800
C1736       C  0.17977005  0.21493762  0.20461057    -0.10400
C1737       C  0.15581971  0.21438579  0.20353148    -0.03300
C1738       C  0.14411460  0.22574952  0.18600835    -0.18400
H1739       H  0.06686044  0.25407711  0.08869974     0.10700
H1740       H  0.08800586  0.23320169  0.11815019     0.10700
H1741       H  0.12814204  0.29373285  0.13211017     0.10400
H1742       H  0.10647714  0.31475855  0.10275986     0.11500
H1743       H  0.11351383  0.23306560  0.15137969     0.11600
H1744       H  0.15395012  0.26520128  0.14282676     0.13500
H1745       H  0.18996301  0.24635031  0.15656321     0.10000
H1746       H  0.21042620  0.22627829  0.18727956     0.12100
H1747       H  0.14608033  0.20624308  0.21701319     0.08700
H1748       H  0.12563390  0.22598063  0.18664350     0.11500
C1749       C  0.27058501  0.36631093  0.85980905    -0.03100
C1750       C  0.24666945  0.36608480  0.85712831    -0.05700
C1751       C  0.23587315  0.34873371  0.84467946    -0.20800
C1752       C  0.24864078  0.33125390  0.83429181     0.24900
C1753       C  0.27257170  0.33104622  0.83746058    -0.18400
C1754       C  0.28340092  0.34838632  0.85013789    -0.08300
C1755       C  0.23615793  0.31343003  0.82087442    -0.18600
C1756       C  0.24589542  0.30043273  0.80448302    -0.23400
C1757       C  0.23345266  0.28226874  0.79153538     0.27000
C1758       C  0.24612482  0.26398713  0.78242197    -0.20200
C1759       C  0.23519038  0.24585084  0.77126459    -0.09800
C1760       C  0.21133888  0.24565175  0.76884207    -0.10400
C1761       C  0.19864905  0.26455337  0.77660393    -0.03300
C1762       C  0.20958121  0.28268794  0.78797402    -0.18400
H1763       H  0.23616658  0.37935183  0.86468457     0.10700
H1764       H  0.21743293  0.34917695  0.84287123     0.10700
H1765       H  0.28301231  0.31747732  0.83041455     0.10400
H1766       H  0.30182257  0.34799848  0.85196384     0.11500
H1767       H  0.21809652  0.31127623  0.82454624     0.11600
H1768       H  0.26395721  0.30247567  0.80080798     0.13500
H1769       H  0.26451491  0.26334405  0.78462636     0.10000
H1770       H  0.24529855  0.23144620  0.76537052     0.12100
H1771       H  0.18023741  0.26488171  0.77455861     0.08700
H1772       H  0.19929105  0.29687750  0.79396171     0.11500
C1773       C  0.27199993  0.54651549  0.86433801    -0.03100
C1774       C  0.28520950  0.56628852  0.86058326    -0.05700
C1775       C  0.27656976  0.58445309  0.84749534    -0.20800
C1776       C  0.25465782  0.58320825  0.83769331     0.24900
C1777       C  0.24105413  0.56389400  0.84229087    -0.18400
C1778       C  0.24963953  0.54579854  0.85540047    -0.08300
C1779       C  0.24653476  0.60241784  0.82302410    -0.18600
C1780       C  0.23042508  0.59999324  0.80662962    -0.23400
C1781       C  0.22235415  0.61917735  0.79193339     0.27000
C1782       C  0.23614672  0.63833901  0.78707333    -0.20200
C1783       C  0.22740760  0.65665508  0.77438875    -0.09800
C1784       C  0.20479730  0.65620552  0.76645989    -0.10400
C1785       C  0.19138169  0.63666039  0.77010661    -0.03300
C1786       C  0.20020266  0.61817808  0.78258085    -0.18400
H1787       H  0.30241836  0.56759209  0.86727012     0.10700
H1788       H  0.28727867  0.59930555  0.84453950     0.10700
H1789       H  0.22370464  0.56267927  0.83597616     0.10400
H1790       H  0.23864334  0.53121565  0.85841134     0.11500
H1791       H  0.25459116  0.61897068  0.82559871     0.11600
H1792       H  0.22231656  0.58347120  0.80406440     0.13500
H1793       H  0.25356601  0.63941558  0.79321121     0.10000
H1794       H  0.23788428  0.67175604  0.77182326     0.12100
H1795       H  0.17379953  0.63620430  0.76426527     0.08700
H1796       H  0.18934745  0.60348739  0.78579689     0.11500
C1797       C  0.23886259  0.72150886  0.27109824    -0.03100
C1798       C  0.25724344  0.70663451  0.27543751    -0.05700
C1799       C  0.27650475  0.71441427  0.28751038    -0.20800
C1800       C  0.27759905  0.73708345  0.29568603     0.24900
C1801       C  0.25926578  0.75196009  0.29097292    -0.18400
C1802       C  0.24006838  0.74415833  0.27920025    -0.08300
C1803       C  0.29818626  0.74489062  0.30858013    -0.18600
C1804       C  0.29785835  0.76288234  0.32316270    -0.23400
C1805       C  0.31818687  0.77179517  0.33569909     0.27000
C1806       C  0.31724647  0.79405678  0.34486278    -0.20200
C1807       C  0.33589678  0.80329481  0.35674680    -0.09800
C1808       C  0.35595459  0.79040039  0.35989296    -0.10400
C1809       C  0.35667388  0.76790969  0.35111285    -0.03300
C1810       C  0.33807353  0.75871266  0.33919463    -0.18400
H1811       H  0.25680433  0.68910041  0.26938217     0.10700
H1812       H  0.29048870  0.70264467  0.29067162     0.10700
H1813       H  0.25961116  0.76974890  0.29610965     0.10400
H1814       H  0.22597949  0.75593267  0.27661789     0.11500
H1815       H  0.31388149  0.73538203  0.30589133     0.11600
H1816       H  0.28195158  0.77198416  0.32601478     0.13500
H1817       H  0.30206738  0.80447722  0.34260746     0.10000
H1818       H  0.33459922  0.82060734  0.36324025     0.12100
H1819       H  0.37155396  0.75716716  0.35347881     0.08700
H1820       H  0.33934082  0.74125408  0.33314263     0.11500
C1821       C  0.65311868  0.72464113  0.26822839    -0.03100
C1822       C  0.65625745  0.74703581  0.27657196    -0.05700
C1823       C  0.64024298  0.75703457  0.29114474    -0.20800
C1824       C  0.62080568  0.74486597  0.29813247     0.24900
C1825       C  0.61772145  0.72227250  0.29000341    -0.18400
C1826       C  0.63385183  0.71223069  0.27530855    -0.08300
C1827       C  0.60399455  0.75687308  0.31311896    -0.18600
C1828       C  0.58800710  0.74616061  0.32577486    -0.23400
C1829       C  0.57060836  0.75841129  0.33985405     0.27000
C1830       C  0.55032929  0.74684790  0.34525303    -0.20200
C1831       C  0.53306334  0.75767403  0.35770166    -0.09800
C1832       C  0.53559975  0.78045435  0.36524807    -0.10400
C1833       C  0.55628933  0.79181492  0.36065184    -0.03300
C1834       C  0.57363723  0.78093812  0.34809825    -0.18400
H1835       H  0.67127390  0.75683864  0.27193180     0.10700
H1836       H  0.64314221  0.77438730  0.29709486     0.10700
H1837       H  0.60273512  0.71241859  0.29446196     0.10400
H1838       H  0.63105207  0.69495409  0.26913894     0.11500
H1839       H  0.60497337  0.77543741  0.31357832     0.11600
H1840       H  0.58690038  0.72761087  0.32529814     0.13500
H1841       H  0.54762201  0.72940911  0.33944456     0.10000
H1842       H  0.51767079  0.74807160  0.36125500     0.12100
H1843       H  0.55896070  0.80926640  0.36635595     0.08700
H1844       H  0.58932750  0.79021836  0.34504030     0.11500
C1845       C  0.79135941  0.30628101  0.59030066    -0.03100
C1846       C  0.79789219  0.31276533  0.61250732    -0.05700
C1847       C  0.78915103  0.30117958  0.63160312    -0.20800
C1848       C  0.77363974  0.28294132  0.62896617     0.24900
C1849       C  0.76760358  0.27610739  0.60671068    -0.18400
C1850       C  0.77624249  0.28768427  0.58771087    -0.08300
C1851       C  0.76459244  0.27115764  0.64970559    -0.18600
C1852       C  0.74536712  0.25827822  0.64976405    -0.23400
C1853       C  0.73590677  0.24661068  0.67037691     0.27000
C1854       C  0.71314776  0.23874997  0.66982379    -0.20200
C1855       C  0.70348748  0.22770554  0.68876051    -0.09800
C1856       C  0.71654374  0.22397096  0.70850913    -0.10400
C1857       C  0.73931606  0.23168245  0.70908474    -0.03300
C1858       C  0.74896779  0.24271117  0.69023022    -0.18400
H1859       H  0.80953128  0.32692993  0.61518863     0.10700
H1860       H  0.79435052  0.30665374  0.64852953     0.10700
H1861       H  0.75652705  0.26158739  0.60371330     0.10400
H1862       H  0.77119129  0.28170058  0.57095745     0.11500
H1863       H  0.77366179  0.27419765  0.66559522     0.11600
H1864       H  0.73531923  0.25689635  0.63423141     0.13500
H1865       H  0.70273225  0.24128994  0.65470037     0.10000
H1866       H  0.68594331  0.22182034  0.68787211     0.12100
H1867       H  0.74968415  0.22923249  0.72425501     0.08700
H1868       H  0.76669283  0.24782839  0.69133560     0.11500
C1869       C  0.70978623  0.22983392  0.28748099    -0.03100
C1870       C  0.73249466  0.23720237  0.28448044    -0.05700
C1871       C  0.74344550  0.25044174  0.30106778    -0.20800
C1872       C  0.73196489  0.25716450  0.32100688     0.24900
C1873       C  0.70900116  0.25016037  0.32390360    -0.18400
C1874       C  0.69802320  0.23673909  0.30721112    -0.08300
C1875       C  0.74504115  0.27083341  0.33827412    -0.18600
C1876       C  0.73563619  0.28159035  0.35635798    -0.23400
C1877       C  0.74920826  0.29399775  0.37407984     0.27000
C1878       C  0.73989888  0.29596163  0.39604034    -0.20200
C1879       C  0.75196420  0.30688854  0.41351533    -0.09800
C1880       C  0.77372917  0.31639037  0.40954222    -0.10400
C1881       C  0.78281776  0.31520852  0.38732624    -0.03300
C1882       C  0.77071490  0.30406942  0.36974797    -0.18400
H1883       H  0.74183619  0.23289190  0.26909073     0.10700
H1884       H  0.76101389  0.25557685  0.29820112     0.10700
H1885       H  0.69945780  0.25455117  0.33908440     0.10400
H1886       H  0.68049190  0.23143440  0.30991510     0.11500
H1887       H  0.76344083  0.27175484  0.33600455     0.11600
H1888       H  0.71735131  0.28052799  0.35913781     0.13500
H1889       H  0.72329285  0.28865688  0.39983176     0.10000
H1890       H  0.74407474  0.30783013  0.43020032     0.12100
H1891       H  0.79944199  0.32246573  0.38362379     0.08700
H1892       H  0.77817395  0.30355161  0.35284484     0.11500
loop_ 
_geom_bond_atom_site_label_1 
_geom_bond_atom_site_label_2 
_geom_bond_distance 
_geom_bond_site_symmetry_2 
_ccdc_geom_bond_type 
N1            N2   1.319       .  A
N1            C5   1.338       .  A
N1           Cu9   2.047       .  S
N2            C3   1.354       .  A
N2           Cu8   2.106       .  S
C3            C4   1.397       .  A
C3            H6   1.082       .  S
C4            C5   1.382       .  A
C4         C1880   1.490       .  S
C5            H7   1.081       .  S
Cu8          N11   2.109       .  S
Cu9          N19   2.047       .  S
Cu10         N12   2.096       .  S
Cu10         N18   2.092       .  S
N11          N12   1.328       .  A
N11          C15   1.350       .  A
N12          C13   1.347       .  A
C13          C14   1.383       .  A
C13          H16   1.082       .  S
C14          C15   1.386       .  A
C14         C737   1.479       .  S
C15          H17   1.082       .  S
N18          N19   1.318       .  A
N18          C22   1.351       .  A
N19          C20   1.339       .  A
C20          C21   1.384       .  A
C20          H23   1.081       .  S
C21          C22   1.395       .  A
C21        C1845   1.489       .  S
C22          H24   1.082       .  S
N25          N26   1.320       .  A
N25          C29   1.339       .  A
N25         Cu33   2.050       .  S
N26          C27   1.352       .  A
N26         Cu32   2.102       .  S
C27          C28   1.396       .  A
C27          H30   1.082       .  S
C28          C29   1.383       .  A
C28        C1832   1.490       .  S
C29          H31   1.081       .  S
Cu32         N35   2.104       .  S
Cu33         N43   2.050       .  S
Cu34         N36   2.098       .  S
Cu34         N42   2.095       .  S
N35          N36   1.327       .  A
N35          C39   1.350       .  A
N36          C37   1.348       .  A
C37          C38   1.385       .  A
C37          H40   1.082       .  S
C38          C39   1.387       .  A
C38         C723   1.482       .  S
C39          H41   1.082       .  S
N42          N43   1.319       .  A
N42          C46   1.350       .  A
N43          C44   1.340       .  A
C44          C45   1.384       .  A
C44          H47   1.080       .  S
C45          C46   1.396       .  A
C45        C1808   1.490       .  S
C46          H48   1.081       .  S
N49          N50   1.321       .  A
N49          C53   1.340       .  A
N49         Cu57   2.057       .  S
N50          C51   1.353       .  A
N50         Cu56   2.104       .  S
C51          C52   1.394       .  A
C51          H54   1.082       .  S
C52          C53   1.382       .  A
C52        C1749   1.488       .  S
C53          H55   1.082       .  S
Cu56         N59   2.106       .  S
Cu57         N67   2.057       .  S
Cu58         N60   2.091       .  S
Cu58         N66   2.089       .  S
N59          N60   1.326       .  A
N59          C63   1.351       .  A
N60          C61   1.347       .  A
C61          C62   1.384       .  A
C61          H64   1.082       .  S
C62          C63   1.388       .  A
C62         C709   1.481       .  S
C63          H65   1.082       .  S
N66          N67   1.319       .  A
N66          C70   1.349       .  A
N67          C68   1.341       .  A
C68          C69   1.386       .  A
C68          H71   1.081       .  S
C69          C70   1.394       .  A
C69        C1773   1.489       .  S
C70          H72   1.081       .  S
N73          N74   1.321       .  A
N73          C77   1.340       .  A
N73         Cu81   2.055       .  S
N74          C75   1.352       .  A
N74         Cu80   2.093       .  S
C75          C76   1.390       .  A
C75          H78   1.082       .  S
C76          C77   1.379       .  A
C76        C1725   1.478       .  S
C77          H79   1.082       .  S
Cu80         N83   2.095       .  S
Cu81         N91   2.058   1_554  S
Cu82         N84   2.095       .  S
Cu82         N90   2.092       .  S
N83          N84   1.326   1_554  A
N83          C87   1.348       .  A
N84          C85   1.349       .  A
C85          C86   1.385   1_556  A
C85          H88   1.082       .  S
C86          C87   1.385       .  A
C86         C182   1.478   1_455  S
C87          H89   1.082       .  S
N90          N91   1.320       .  A
N90          C94   1.351       .  A
N91          C92   1.341       .  A
C92          C93   1.382       .  A
C92          H95   1.082       .  S
C93          C94   1.391       .  A
C93        C1701   1.484       .  S
C94          H96   1.082       .  S
N97          N98   1.320       .  A
N97         C101   1.341       .  A
N97        Cu105   2.055       .  S
N98          C99   1.350       .  A
N98        Cu104   2.097       .  S
C99         C100   1.395       .  A
C99         H102   1.081       .  S
C100        C101   1.384       .  A
C100       C1653   1.490       .  S
C101        H103   1.081       .  S
Cu104       N107   2.099       .  S
Cu105       N115   2.054       .  S
Cu106       N108   2.100       .  S
Cu106       N114   2.098       .  S
N107        N108   1.326       .  A
N107        C111   1.349       .  A
N108        C109   1.349       .  A
C109        C110   1.386       .  A
C109        H112   1.082       .  S
C110        C111   1.386       .  A
C110        C217   1.481       .  S
C111        H113   1.082       .  S
N114        N115   1.320       .  A
N114        C118   1.352   1_565  A
N115        C116   1.340       .  A
C116        C117   1.382   1_565  A
C116        H119   1.082       .  S
C117        C118   1.393       .  A
C117       C1677   1.485       .  S
C118        H120   1.082       .  S
N121        N122   1.319       .  A
N121        C125   1.337       .  A
N121       Cu129   2.046       .  S
N122        C123   1.353       .  A
N122       Cu128   2.094       .  S
C123        C124   1.394       .  A
C123        H126   1.082       .  S
C124        C125   1.380       .  A
C124       C1605   1.483       .  S
C125        H127   1.081       .  S
Cu128       N131   2.098       .  S
Cu129       N139   2.046       .  S
Cu130       N132   2.105       .  S
Cu130       N138   2.102       .  S
N131        N132   1.328       .  A
N131        C135   1.349       .  A
N132        C133   1.348       .  A
C133        C134   1.385       .  A
C133        H136   1.082       .  S
C134        C135   1.384       .  A
C134        C740   1.479       .  S
C135        H137   1.082       .  S
N138        N139   1.318       .  A
N138        C142   1.353       .  A
N139        C140   1.339       .  A
C140        C141   1.385       .  A
C140        H143   1.080       .  S
C141        C142   1.398       .  A
C141       C1640   1.494       .  S
C142        H144   1.081       .  S
N145        N146   1.320       .  A
N145        C149   1.340       .  A
N145       Cu153   2.054       .  S
N146        C147   1.348       .  A
N146       Cu152   2.079       .  S
C147        C148   1.390       .  A
C147        H150   1.082       .  S
C148        C149   1.383       .  A
C148       C1568   1.480       .  S
C149        H151   1.081       .  S
Cu152       N155   2.081       .  S
Cu153       N163   2.054   1_554  S
Cu154       N156   2.094       .  S
Cu154       N162   2.093       .  S
N155        N156   1.325   1_554  A
N155        C159   1.346       .  A
N156        C157   1.348       .  A
C157        C158   1.385   1_456  A
C157        H160   1.082       .  S
C158        C159   1.382   1_655  A
C158        C180   1.474       .  S
C159        H161   1.082       .  S
N162        N163   1.321       .  A
N162        C166   1.350       .  A
N163        C164   1.340       .  A
C164        C165   1.381       .  A
C164        H167   1.082       .  S
C165        C166   1.391       .  A
C165       C1592   1.481       .  S
C166        H168   1.082       .  S
O169       Cu177   2.018       .  S
O169        C179   1.278       .  A
O170       Cu177   2.017       .  S
O170        C180   1.279       .  A
O171       Cu177   2.021       .  S
O171        C181   1.278       .  A
O172       Cu177   2.021       .  S
O172        C182   1.279       .  A
O173       Cu178   2.022       .  S
O173        C182   1.279   1_556  A
O174       Cu178   2.024       .  S
O174        C181   1.279   1_556  A
O175       Cu178   2.018       .  S
O175        C180   1.278   1_556  A
O176       Cu178   2.021       .  S
O176        C179   1.279   1_556  A
Cu177      Cu178   2.373   1_554  S
C179        C234   1.477       .  S
C181        C688   1.479       .  S
N183        N184   1.320       .  A
N183        C187   1.341       .  A
N183       Cu191   2.058       .  S
N184        C185   1.351       .  A
N184       Cu190   2.096       .  S
C185        C186   1.394       .  A
C185        H188   1.082       .  S
C186        C187   1.384       .  A
C186       C1533   1.489       .  S
C187        H189   1.081       .  S
Cu190       N193   2.097       .  S
Cu191       N201   2.058       .  S
Cu192       N194   2.099       .  S
Cu192       N200   2.096   1_565  S
N193        N194   1.326       .  A
N193        C197   1.349       .  A
N194        C195   1.349       .  A
C195        C196   1.386       .  A
C195        H198   1.082       .  S
C196        C197   1.385       .  A
C196        C219   1.480       .  S
C197        H199   1.082       .  S
N200        N201   1.320   1_545  A
N200        C204   1.352       .  A
N201        C202   1.340   1_565  A
C202        C203   1.383       .  A
C202        H205   1.081       .  S
C203        C204   1.394       .  A
C203       C1509   1.487       .  S
C204        H206   1.082       .  S
O207       Cu215   2.026   1_554  S
O207        C217   1.279       .  A
O208       Cu215   2.027       .  S
O208        C218   1.280       .  A
O209       Cu215   2.028   1_554  S
O209        C219   1.280       .  A
O210       Cu215   2.029       .  S
O210        C220   1.279       .  A
O211       Cu216   2.020       .  S
O211        C220   1.279       .  A
O212       Cu216   2.019   1_554  S
O212        C219   1.278       .  A
O213       Cu216   2.027       .  S
O213        C218   1.279       .  A
O214       Cu216   2.026   1_554  S
O214        C217   1.279       .  A
Cu215      Cu216   2.371       .  S
C218        C630   1.482       .  S
C220        C388   1.480       .  S
N221        N222   1.319       .  A
N221        C225   1.341       .  A
N221       Cu229   2.053   1_556  S
N222        C223   1.348       .  A
N222       Cu228   2.090       .  S
C223        C224   1.394       .  A
C223        H226   1.081       .  S
C224        C225   1.385       .  A
C224       C1472   1.488       .  S
C225        H227   1.081       .  S
Cu228       N231   2.092       .  S
Cu229       N239   2.052       .  S
Cu230       N232   2.095       .  S
Cu230       N238   2.093       .  S
N231        N232   1.326   1_556  A
N231        C235   1.348       .  A
N232        C233   1.348       .  A
C233        C234   1.385       .  A
C233        H236   1.082       .  S
C234        C235   1.384   1_554  A
C235        H237   1.082       .  S
N238        N239   1.320       .  A
N238        C242   1.351       .  A
N239        C240   1.338       .  A
C240        C241   1.384       .  A
C240        H243   1.080       .  S
C241        C242   1.395       .  A
C241       C1485   1.488       .  S
C242        H244   1.082       .  S
C245        H246   1.110       .  S
C245        C251   1.537       .  S
C245        C250   1.535       .  S
C245        C249   1.541       .  S
C247        H248   1.110       .  S
C247        C253   1.546       .  S
C247        C252   1.542       .  S
C247        C254   1.539       .  S
C249        C252   1.378       .  D
C249       C1821   1.492       .  S
C250        C253   1.376       .  D
C250       C1629   1.493       .  S
C251        C254   1.373       .  D
C251       C1413   1.480       .  S
C252       C1544   1.500       .  S
C253       C1448   1.490       .  S
C254       C1400   1.484       .  S
N255        N256   1.320       .  A
N255        C259   1.338       .  A
N255       Cu263   2.048       .  S
N256        C257   1.352       .  A
N256       Cu262   2.099       .  S
C257        C258   1.395       .  A
C257        H260   1.082       .  S
C258        C259   1.382       .  A
C258       C1365   1.487       .  S
C259        H261   1.081       .  S
Cu262       N265   2.102       .  S
Cu263       N273   2.049       .  S
Cu264       N266   2.099       .  S
Cu264       N272   2.096       .  S
N265        N266   1.327       .  A
N265        C269   1.349       .  A
N266        C267   1.349       .  A
C267        C268   1.385       .  A
C267        H270   1.082       .  S
C268        C269   1.386       .  A
C268        C710   1.481       .  S
C269        H271   1.082       .  S
N272        N273   1.319       .  A
N272        C276   1.350       .  A
N273        C274   1.340       .  A
C274        C275   1.385       .  A
C274        H277   1.081       .  S
C275        C276   1.396       .  A
C275       C1424   1.491       .  S
C276        H278   1.081       .  S
C279        H280   1.109       .  S
C279        C285   1.536       .  S
C279        C284   1.540       .  S
C279        C283   1.536       .  S
C281        H282   1.109       .  S
C281        C287   1.543       .  S
C281        C286   1.542       .  S
C281        C288   1.542       .  S
C283        C286   1.376       .  D
C283       C1496   1.490       .  S
C284        C287   1.378       .  D
C284       C1520   1.495       .  S
C285        C288   1.375       .  D
C285       C1341   1.488       .  S
C286       C1376   1.492       .  S
C287       C1317   1.493       .  S
C288       C1869   1.495       .  S
N289        N290   1.320       .  A
N289        C293   1.340       .  A
N289       Cu297   2.056       .  S
N290        C291   1.352       .  A
N290       Cu296   2.102       .  S
C291        C292   1.397       .  A
C291        H294   1.081       .  S
C292        C293   1.385       .  A
C292       C1328   1.494       .  S
C293        H295   1.080       .  S
Cu296       N299   2.104       .  S
Cu297       N307   2.056       .  S
Cu298       N300   2.102       .  S
Cu298       N306   2.100       .  S
N299        N300   1.327       .  A
N299        C303   1.351       .  A
N300        C301   1.348       .  A
C301        C302   1.385   1_545  A
C301        H304   1.082       .  S
C302        C303   1.387   1_565  A
C302        C725   1.482       .  S
C303        H305   1.082       .  S
N306        N307   1.319       .  A
N306        C310   1.351       .  A
N307        C308   1.341       .  A
C308        C309   1.385       .  A
C308        H311   1.081       .  S
C309        C310   1.397       .  A
C309       C1304   1.493       .  S
C310        H312   1.081       .  S
N313        N314   1.319       .  A
N313        C317   1.337       .  A
N313       Cu321   2.037       .  S
N314        C315   1.355   1_655  A
N314       Cu320   2.110       .  S
C315        C316   1.397       .  A
C315        H318   1.082       .  S
C316        C317   1.379   1_455  A
C316       C1245   1.486       .  S
C317        H319   1.082       .  S
Cu320       N323   2.114       .  S
Cu321       N331   2.038       .  S
Cu322       N324   2.091       .  S
Cu322       N330   2.087       .  S
N323        N324   1.328       .  A
N323        C327   1.350       .  A
N324        C325   1.347       .  A
C325        C326   1.382       .  A
C325        H328   1.082       .  S
C326        C327   1.388       .  A
C326        C347   1.479   1_545  S
C327        H329   1.082       .  S
N330        N331   1.317       .  A
N330        C334   1.350       .  A
N331        C332   1.336       .  A
C332        C333   1.383       .  A
C332        H335   1.080       .  S
C333        C334   1.396       .  A
C333       C1269   1.487       .  S
C334        H336   1.081       .  S
O337       Cu345   2.020       .  S
O337        C347   1.278       .  A
O338       Cu345   2.022       .  S
O338        C348   1.279       .  A
O339       Cu345   2.025       .  S
O339        C349   1.279       .  A
O340       Cu345   2.026       .  S
O340        C350   1.280       .  A
O341       Cu346   2.023       .  S
O341        C350   1.279       .  A
O342       Cu346   2.022       .  S
O342        C349   1.279       .  A
O343       Cu346   2.027       .  S
O343        C348   1.279       .  A
O344       Cu346   2.026       .  S
O344        C347   1.280       .  A
Cu345      Cu346   2.372       .  S
C348        C524   1.480       .  S
C349        C654   1.480   1_565  S
C350        C606   1.480       .  S
N351        N352   1.320       .  A
N351        C355   1.338       .  A
N351       Cu359   2.048       .  S
N352        C353   1.354       .  A
N352       Cu358   2.099       .  S
C353        C354   1.393       .  A
C353        H356   1.082       .  S
C354        C355   1.378       .  A
C354       C1232   1.479       .  S
C355        H357   1.082       .  S
Cu358       N361   2.101       .  S
Cu359       N369   2.048       .  S
Cu360       N362   2.106       .  S
Cu360       N368   2.103       .  S
N361        N362   1.328       .  A
N361        C365   1.348       .  A
N362        C363   1.350       .  A
C363        C364   1.386   1_455  A
C363        H366   1.082       .  S
C364        C365   1.384   1_655  A
C364        C739   1.480       .  S
C365        H367   1.082   1_455  S
N368        N369   1.319       .  A
N368        C372   1.352       .  A
N369        C370   1.339       .  A
C370        C371   1.383       .  A
C370        H373   1.081       .  S
C371        C372   1.397       .  A
C371       C1208   1.490       .  S
C372        H374   1.082       .  S
N375        N376   1.321       .  A
N375        C379   1.340       .  A
N375       Cu383   2.056       .  S
N376        C377   1.353       .  A
N376       Cu382   2.103       .  S
C377        C378   1.394       .  A
C377        H380   1.082       .  S
C378        C379   1.382       .  A
C378       C1149   1.488       .  S
C379        H381   1.082       .  S
Cu382       N385   2.106       .  S
Cu383       N393   2.055       .  S
Cu384       N386   2.090       .  S
Cu384       N392   2.087       .  S
N385        N386   1.326       .  A
N385        C389   1.351       .  A
N386        C387   1.347       .  A
C387        C388   1.383       .  A
C387        H390   1.082       .  S
C388        C389   1.388       .  A
C389        H391   1.082       .  S
N392        N393   1.319       .  A
N392        C396   1.350   1_565  A
N393        C394   1.340       .  A
C394        C395   1.386   1_565  A
C394        H397   1.080       .  S
C395        C396   1.395       .  A
C395       C1184   1.491       .  S
C396        H398   1.081       .  S
C399        H400   1.112       .  S
C399        C405   1.539       .  S
C399        C404   1.535       .  S
C399        C403   1.534       .  S
C401        H402   1.111       .  S
C401        C407   1.543       .  S
C401        C406   1.537       .  S
C401        C408   1.538       .  S
C403        C406   1.372       .  D
C403       C1173   1.479       .  S
C404        C407   1.379       .  D
C404       C1256   1.483       .  S
C405        C408   1.375       .  D
C405       C1712   1.484       .  S
C406       C1136   1.484       .  S
C407       C1221   1.487       .  S
C408       C1760   1.485       .  S
N409        N410   1.319       .  A
N409        C413   1.339       .  A
N409       Cu417   2.053       .  S
N410        C411   1.353       .  A
N410       Cu416   2.103       .  S
C411        C412   1.397       .  A
C411        H414   1.081       .  S
C412        C413   1.385       .  A
C412       C1125   1.493       .  S
C413        H415   1.081       .  S
Cu416       N419   2.105       .  S
Cu417       N427   2.053       .  S
Cu418       N420   2.098       .  S
Cu418       N426   2.095       .  S
N419        N420   1.327       .  A
N419        C423   1.350       .  A
N420        C421   1.348       .  A
C421        C422   1.385   1_545  A
C421        H424   1.082       .  S
C422        C423   1.387   1_565  A
C422        C724   1.481       .  S
C423        H425   1.082       .  S
N426        N427   1.319       .  A
N426        C430   1.351       .  A
N427        C428   1.340       .  A
C428        C429   1.383       .  A
C428        H431   1.081       .  S
C429        C430   1.394       .  A
C429       C1112   1.487       .  S
C430        H432   1.082       .  S
C433        H434   1.109       .  S
C433        C439   1.540       .  S
C433        C438   1.543       .  S
C433        C437   1.536       .  S
C435        H436   1.109       .  S
C435        C441   1.535       .  S
C435        C440   1.538       .  S
C435        C442   1.537       .  S
C437        C440   1.375       .  D
C437       C1856   1.488       .  S
C438        C441   1.376       .  D
C438       C1077   1.490       .  S
C439        C442   1.377       .  D
C439       C1101   1.493       .  S
C440       C1280   1.487       .  S
C441       C1461   1.488       .  S
C442       C1053   1.490       .  S
N443        N444   1.319       .  A
N443        C447   1.340       .  A
N443       Cu451   2.051       .  S
N444        C445   1.352       .  A
N444       Cu450   2.098       .  S
C445        C446   1.395       .  A
C445        H448   1.081       .  S
C446        C447   1.383       .  A
C446       C1088   1.489       .  S
C447        H449   1.081       .  S
Cu450       N453   2.100       .  S
Cu451       N461   2.051       .  S
Cu452       N454   2.106       .  S
Cu452       N460   2.104       .  S
N453        N454   1.327       .  A
N453        C457   1.348       .  A
N454        C455   1.351       .  A
C455        C456   1.387       .  A
C455        H458   1.082       .  S
C456        C457   1.385       .  A
C456        C712   1.483       .  S
C457        H459   1.082       .  S
N460        N461   1.320       .  A
N460        C464   1.352       .  A
N461        C462   1.340       .  A
C462        C463   1.383       .  A
C462        H465   1.081       .  S
C463        C464   1.396       .  A
C463       C1029   1.489       .  S
C464        H466   1.081       .  S
C467        H468   1.111       .  S
C467        C473   1.540       .  S
C467        C472   1.537       .  S
C467        C471   1.537       .  S
C469        H470   1.110       .  S
C469        C475   1.537       .  S
C469        C474   1.540       .  S
C469        C476   1.538       .  S
C471        C474   1.377       .  D
C471        C981   1.488       .  S
C472        C475   1.371       .  D
C472       C1005   1.481       .  S
C473        C476   1.377       .  D
C473        C957   1.488       .  S
C474        C944   1.492       .  S
C475       C1616   1.477       .  S
C476       C1040   1.491       .  S
N477        N478   1.320       .  A
N477        C481   1.339       .  A
N477       Cu485   2.046       .  S
N478        C479   1.354       .  A
N478       Cu484   2.106       .  S
C479        C480   1.394       .  A
C479        H482   1.082       .  S
C480        C481   1.379       .  A
C480        C909   1.481       .  S
C481        H483   1.082       .  S
Cu484       N487   2.109       .  S
Cu485       N495   2.046       .  S
Cu486       N488   2.098       .  S
Cu486       N494   2.095       .  S
N487        N488   1.328       .  A
N487        C491   1.350       .  A
N488        C489   1.349       .  A
C489        C490   1.385       .  A
C489        H492   1.082       .  S
C490        C491   1.387       .  A
C490        C726   1.482       .  S
C491        H493   1.082       .  S
N494        N495   1.319       .  A
N494        C498   1.351       .  A
N495        C496   1.339       .  A
C496        C497   1.381       .  A
C496        H499   1.082       .  S
C497        C498   1.393       .  A
C497        C933   1.482       .  S
C498        H500   1.081       .  S
C501        H502   1.111       .  S
C501        C507   1.535       .  S
C501        C506   1.538       .  S
C501        C505   1.538       .  S
C503        H504   1.110       .  S
C503        C509   1.540       .  S
C503        C508   1.539       .  S
C503        C510   1.534       .  S
C505        C508   1.376       .  D
C505        C872   1.485       .  S
C506        C509   1.377       .  D
C506       C1160   1.488       .  S
C507        C510   1.371       .  D
C507       C1581   1.482       .  S
C508        C896   1.494       .  S
C509        C920   1.481       .  S
C510       C1784   1.475       .  S
N511        N512   1.320       .  A
N511        C515   1.340       .  A
N511       Cu519   2.054       .  S
N512        C513   1.351   1_655  A
N512       Cu518   2.094       .  S
C513        C514   1.394       .  A
C513        H516   1.082       .  S
C514        C515   1.383   1_455  A
C514        C848   1.487       .  S
C515        H517   1.081       .  S
Cu518       N521   2.096       .  S
Cu519       N529   2.054       .  S
Cu520       N522   2.101       .  S
Cu520       N528   2.098       .  S
N521        N522   1.327       .  A
N521        C525   1.348       .  A
N522        C523   1.350       .  A
C523        C524   1.386       .  A
C523        H526   1.082       .  S
C524        C525   1.385       .  A
C525        H527   1.082       .  S
N528        N529   1.320       .  A
N528        C532   1.352       .  A
N529        C530   1.340       .  A
C530        C531   1.382       .  A
C530        H533   1.082       .  S
C531        C532   1.394       .  A
C531       C1437   1.486       .  S
C532        H534   1.082       .  S
C535        H536   1.110       .  S
C535        C541   1.539       .  S
C535        C540   1.542       .  S
C535        C539   1.542       .  S
C537        H538   1.109       .  S
C537        C543   1.537       .  S
C537        C542   1.536       .  S
C537        C544   1.536       .  S
C539        C542   1.375       .  D
C539        C800   1.491       .  S
C540        C543   1.378       .  D
C540       C1797   1.490       .  S
C541        C544   1.377       .  D
C541        C824   1.493       .  S
C542        C837   1.492       .  S
C543       C1664   1.492       .  S
C544       C1557   1.485       .  S
N545        N546   1.318       .  A
N545        C549   1.340       .  A
N545       Cu553   2.049       .  S
N546        C547   1.351       .  A
N546       Cu552   2.098       .  S
C547        C548   1.397       .  A
C547        H550   1.081       .  S
C548        C549   1.385       .  A
C548        C765   1.493       .  S
C549        H551   1.081       .  S
Cu552       N555   2.101       .  S
Cu553       N563   2.049       .  S
Cu554       N556   2.103       .  S
Cu554       N562   2.100       .  S
N555        N556   1.328       .  A
N555        C559   1.349       .  A
N556        C557   1.349       .  A
C557        C558   1.385       .  A
C557        H560   1.082       .  S
C558        C559   1.385       .  A
C558        C711   1.480       .  S
C559        H561   1.082       .  S
N562        N563   1.319       .  A
N562        C566   1.353       .  A
N563        C564   1.338       .  A
C564        C565   1.383       .  A
C564        H567   1.081       .  S
C565        C566   1.397       .  A
C565        C813   1.490       .  S
C566        H568   1.082       .  S
N569        N570   1.319       .  A
N569        C573   1.339       .  A
N569       Cu577   2.051       .  S
N570        C571   1.351       .  A
N570       Cu576   2.092       .  S
C571        C572   1.394       .  A
C571        H574   1.082       .  S
C572        C573   1.382       .  A
C572        C885   1.485       .  S
C573        H575   1.081       .  S
Cu576       N579   2.095       .  S
Cu577       N587   2.052       .  S
Cu578       N580   2.100       .  S
Cu578       N586   2.097       .  S
N579        N580   1.327       .  A
N579        C583   1.347       .  A
N580        C581   1.350       .  A
C581        C582   1.386   1_455  A
C581        H584   1.082       .  S
C582        C583   1.384   1_655  A
C582        C738   1.479       .  S
C583        H585   1.082       .  S
N586        N587   1.320       .  A
N586        C590   1.351       .  A
N587        C588   1.340       .  A
C588        C589   1.383       .  A
C588        H591   1.081       .  S
C589        C590   1.395       .  A
C589        C789   1.488       .  S
C590        H592   1.082       .  S
N593        N594   1.319       .  A
N593        C597   1.337       .  A
N593       Cu601   2.042       .  S
N594        C595   1.351   1_655  A
N594       Cu600   2.092       .  S
C595        C596   1.394       .  A
C595        H598   1.082       .  S
C596        C597   1.380   1_455  A
C596        C861   1.482       .  S
C597        H599   1.081       .  S
Cu600       N603   2.095       .  S
Cu601       N611   2.043       .  S
Cu602       N604   2.106       .  S
Cu602       N610   2.103       .  S
N603        N604   1.327       .  A
N603        C607   1.348       .  A
N604        C605   1.349       .  A
C605        C606   1.386       .  A
C605        H608   1.082       .  S
C606        C607   1.384       .  A
C607        H609   1.082       .  S
N610        N611   1.319       .  A
N610        C614   1.352       .  A
N611        C612   1.340       .  A
C612        C613   1.381       .  A
C612        H615   1.082       .  S
C613        C614   1.395       .  A
C613       C1016   1.487       .  S
C614        H616   1.082       .  S
N617        N618   1.320       .  A
N617        C621   1.339   1_565  A
N617       Cu625   2.052       .  S
N618        C619   1.351   1_565  A
N618       Cu624   2.099       .  S
C619        C620   1.394       .  A
C619        H622   1.082       .  S
C620        C621   1.382       .  A
C620       C1064   1.485       .  S
C621        H623   1.081   1_545  S
Cu624       N627   2.102       .  S
Cu625       N635   2.052       .  S
Cu626       N628   2.099       .  S
Cu626       N634   2.097       .  S
N627        N628   1.326       .  A
N627        C631   1.350       .  A
N628        C629   1.349       .  A
C629        C630   1.385       .  A
C629        H632   1.082       .  S
C630        C631   1.387       .  A
C631        H633   1.082       .  S
N634        N635   1.319       .  A
N634        C638   1.350       .  A
N635        C636   1.340       .  A
C636        C637   1.385       .  A
C636        H639   1.081       .  S
C637        C638   1.396       .  A
C637        C992   1.492       .  S
C638        H640   1.081       .  S
N641        N642   1.319       .  A
N641        C645   1.339       .  A
N641       Cu649   2.051       .  S
N642        C643   1.352       .  A
N642       Cu648   2.098       .  S
C643        C644   1.395       .  A
C643        H646   1.082       .  S
C644        C645   1.382       .  A
C644       C1352   1.487       .  S
C645        H647   1.081       .  S
Cu648       N651   2.101       .  S
Cu649       N659   2.051       .  S
Cu650       N652   2.100       .  S
Cu650       N658   2.098       .  S
N651        N652   1.327       .  A
N651        C655   1.349       .  A
N652        C653   1.348       .  A
C653        C654   1.385       .  A
C653        H656   1.082       .  S
C654        C655   1.385       .  A
C655        H657   1.082       .  S
N658        N659   1.320       .  A
N658        C662   1.353   1_655  A
N659        C660   1.340       .  A
C660        C661   1.381   1_655  A
C660        H663   1.081       .  S
C661        C662   1.393       .  A
C661        C752   1.484       .  S
C662        H664   1.082       .  S
C665        H666   1.111       .  S
C665        C671   1.536       .  S
C665        C670   1.536       .  S
C665        C669   1.537       .  S
C667        H668   1.111       .  S
C667        C673   1.543       .  S
C667        C672   1.540       .  S
C667        C674   1.542       .  S
C669        C672   1.374       .  D
C669        C776   1.478       .  S
C670        C673   1.376       .  D
C670       C1293   1.491       .  S
C671        C674   1.376       .  D
C671       C1197   1.484       .  S
C672       C1736   1.488       .  S
C673       C1688   1.492       .  S
C674        C741   1.486       .  S
N675        N676   1.318       .  A
N675        C679   1.338       .  A
N675       Cu683   2.048       .  S
N676        C677   1.352       .  A
N676       Cu682   2.093       .  S
C677        C678   1.395       .  A
C677        H680   1.082       .  S
C678        C679   1.383       .  A
C678        C968   1.488       .  S
C679        H681   1.081       .  S
Cu682       N685   2.096       .  S
Cu683       N693   2.048   1_556  S
Cu684       N686   2.104       .  S
Cu684       N692   2.101       .  S
N685        N686   1.328   1_556  A
N685        C689   1.347       .  A
N686        C687   1.349       .  A
C687        C688   1.386       .  A
C687        H690   1.082       .  S
C688        C689   1.383   1_554  A
C689        H691   1.082       .  S
N692        N693   1.319       .  A
N692        C696   1.352       .  A
N693        C694   1.339       .  A
C694        C695   1.383       .  A
C694        H697   1.081       .  S
C695        C696   1.397       .  A
C695       C1389   1.491       .  S
C696        H698   1.082       .  S
O699       Cu707   2.026       .  S
O699        C709   1.279       .  A
O700       Cu707   2.024   1_554  S
O700        C710   1.279       .  A
O701       Cu707   2.022   1_554  S
O701        C711   1.279       .  A
O702       Cu707   2.025       .  S
O702        C712   1.279       .  A
O703       Cu708   2.031       .  S
O703        C712   1.280       .  A
O704       Cu708   2.026   1_554  S
O704        C711   1.279       .  A
O705       Cu708   2.025   1_554  S
O705        C710   1.279       .  A
O706       Cu708   2.025       .  S
O706        C709   1.280       .  A
Cu707      Cu708   2.371       .  S
O713       Cu721   2.025       .  S
O713        C723   1.279       .  A
O714       Cu721   2.025       .  S
O714        C724   1.279       .  A
O715       Cu721   2.022       .  S
O715        C725   1.279       .  A
O716       Cu721   2.023       .  S
O716        C726   1.279       .  A
O717       Cu722   2.032       .  S
O717        C726   1.280       .  A
O718       Cu722   2.032       .  S
O718        C725   1.280       .  A
O719       Cu722   2.027       .  S
O719        C724   1.280       .  A
O720       Cu722   2.028       .  S
O720        C723   1.279       .  A
Cu721      Cu722   2.371       .  S
O727       Cu735   2.027       .  S
O727        C737   1.279       .  A
O728       Cu735   2.028       .  S
O728        C738   1.279       .  A
O729       Cu735   2.027       .  S
O729        C739   1.279       .  A
O730       Cu735   2.022       .  S
O730        C740   1.279       .  A
O731       Cu736   2.023       .  S
O731        C740   1.279       .  A
O732       Cu736   2.022       .  S
O732        C739   1.279       .  A
O733       Cu736   2.017       .  S
O733        C738   1.278       .  A
O734       Cu736   2.018       .  S
O734        C737   1.279       .  A
Cu735      Cu736   2.372       .  S
C741        C742   1.401       .  A
C741        C746   1.403       .  A
C742        C743   1.399       .  A
C742        H755   1.083       .  S
C743        C744   1.406       .  A
C743        H756   1.084       .  S
C744        C745   1.413       .  A
C744        C747   1.497       .  S
C745        C746   1.402       .  A
C745        H757   1.079       .  S
C746        H758   1.083       .  S
C747        C748   1.349       .  D
C747        H759   1.086       .  S
C748        C749   1.489       .  S
C748        H760   1.083       .  S
C749        C750   1.401       .  A
C749        C754   1.410       .  A
C750        C751   1.396       .  A
C750        H761   1.084       .  S
C751        C752   1.406       .  A
C751        H762   1.083       .  S
C752        C753   1.405       .  A
C753        C754   1.405       .  A
C753        H763   1.083       .  S
C754        H764   1.082       .  S
C765        C766   1.406       .  A
C765        C770   1.410       .  A
C766        C767   1.401       .  A
C766        H779   1.082       .  S
C767        C768   1.405       .  A
C767        H780   1.083       .  S
C768        C769   1.405       .  A
C768        C771   1.490       .  S
C769        C770   1.398       .  A
C769        H781   1.082       .  S
C770        H782   1.080       .  S
C771        C772   1.351       .  D
C771        H783   1.086       .  S
C772        C773   1.489       .  S
C772        H784   1.085       .  S
C773        C774   1.407       .  A
C773        C778   1.407       .  A
C774        C775   1.402       .  A
C774        H785   1.083       .  S
C775        C776   1.402       .  A
C775        H786   1.083       .  S
C776        C777   1.401       .  A
C777        C778   1.397       .  A
C777        H787   1.083       .  S
C778        H788   1.082       .  S
C789        C790   1.407       .  A
C789        C794   1.405       .  A
C790        C791   1.397       .  A
C790        H803   1.081       .  S
C791        C792   1.401       .  A
C791        H804   1.084       .  S
C792        C793   1.411       .  A
C792        C795   1.492       .  S
C793        C794   1.403       .  A
C793        H805   1.081       .  S
C794        H806   1.082       .  S
C795        C796   1.346       .  D
C795        H807   1.086       .  S
C796        C797   1.488       .  S
C796        H808   1.085       .  S
C797        C798   1.400       .  A
C797        C802   1.412       .  A
C798        C799   1.393       .  A
C798        H809   1.084       .  S
C799        C800   1.406       .  A
C799        H810   1.083       .  S
C800        C801   1.403       .  A
C801        C802   1.406       .  A
C801        H811   1.083       .  S
C802        H812   1.081       .  S
C813        C814   1.408       .  A
C813        C818   1.406       .  A
C814        C815   1.395       .  A
C814        H827   1.081       .  S
C815        C816   1.401       .  A
C815        H828   1.084       .  S
C816        C817   1.412       .  A
C816        C819   1.494       .  S
C817        C818   1.406       .  A
C817        H829   1.081       .  S
C818        H830   1.082       .  S
C819        C820   1.347       .  D
C819        H831   1.085       .  S
C820        C821   1.493       .  S
C820        H832   1.085       .  S
C821        C822   1.401       .  A
C821        C826   1.413       .  A
C822        C823   1.394       .  A
C822        H833   1.084       .  S
C823        C824   1.407       .  A
C823        H834   1.083       .  S
C824        C825   1.403       .  A
C825        C826   1.406       .  A
C825        H835   1.083       .  S
C826        H836   1.081       .  S
C837        C838   1.406       .  A
C837        C842   1.404       .  A
C838        C839   1.394       .  A
C838        H851   1.083       .  S
C839        C840   1.401       .  A
C839        H852   1.084       .  S
C840        C841   1.411       .  A
C840        C843   1.489       .  S
C841        C842   1.404       .  A
C841        H853   1.081       .  S
C842        H854   1.083       .  S
C843        C844   1.347       .  D
C843        H855   1.084       .  S
C844        C845   1.492       .  S
C844        H856   1.085       .  S
C845        C846   1.402       .  A
C845        C850   1.411       .  A
C846        C847   1.396       .  A
C846        H857   1.084       .  S
C847        C848   1.406       .  A
C847        H858   1.082       .  S
C848        C849   1.405       .  A
C849        C850   1.403       .  A
C849        H859   1.082       .  S
C850        H860   1.081       .  S
C861        C862   1.404       .  A
C861        C866   1.407       .  A
C862        C863   1.401       .  A
C862        H875   1.083       .  S
C863        C864   1.406       .  A
C863        H876   1.083       .  S
C864        C865   1.405       .  A
C864        C867   1.486       .  S
C865        C866   1.394       .  A
C865        H877   1.081       .  S
C866        H878   1.082       .  S
C867        C868   1.350       .  D
C867        H879   1.085       .  S
C868        C869   1.485       .  S
C868        H880   1.084       .  S
C869        C870   1.406       .  A
C869        C874   1.405       .  A
C870        C871   1.400       .  A
C870        H881   1.083       .  S
C871        C872   1.402       .  A
C871        H882   1.082       .  S
C872        C873   1.405       .  A
C873        C874   1.394       .  A
C873        H883   1.083       .  S
C874        H884   1.081       .  S
C885        C886   1.406       .  A
C885        C890   1.405       .  A
C886        C887   1.395       .  A
C886        H899   1.082       .  S
C887        C888   1.401       .  A
C887        H900   1.084       .  S
C888        C889   1.411       .  A
C888        C891   1.489       .  S
C889        C890   1.404       .  A
C889        H901   1.081       .  S
C890        H902   1.082       .  S
C891        C892   1.346       .  D
C891        H903   1.086       .  S
C892        C893   1.488       .  S
C892        H904   1.085       .  S
C893        C894   1.400       .  A
C893        C898   1.410       .  A
C894        C895   1.395       .  A
C894        H905   1.084       .  S
C895        C896   1.408       .  A
C895        H906   1.082       .  S
C896        C897   1.404       .  A
C897        C898   1.403       .  A
C897        H907   1.082       .  S
C898        H908   1.082       .  S
C909        C910   1.405       .  A
C909        C914   1.404       .  A
C910        C911   1.396       .  A
C910        H923   1.083       .  S
C911        C912   1.401       .  A
C911        H924   1.083       .  S
C912        C913   1.410       .  A
C912        C915   1.488       .  S
C913        C914   1.405       .  A
C913        H925   1.082       .  S
C914        H926   1.083       .  S
C915        C916   1.347       .  D
C915        H927   1.084       .  S
C916        C917   1.491       .  S
C916        H928   1.085       .  S
C917        C918   1.403       .  A
C917        C922   1.412       .  A
C918        C919   1.397       .  A
C918        H929   1.083       .  S
C919        C920   1.402       .  A
C919        H930   1.083       .  S
C920        C921   1.402       .  A
C921        C922   1.402       .  A
C921        H931   1.083       .  S
C922        H932   1.081       .  S
C933        C934   1.407       .  A
C933        C938   1.403       .  A
C934        C935   1.397       .  A
C934        H947   1.082       .  S
C935        C936   1.401       .  A
C935        H948   1.084       .  S
C936        C937   1.410       .  A
C936        C939   1.488       .  S
C937        C938   1.401       .  A
C937        H949   1.082       .  S
C938        H950   1.083       .  S
C939        C940   1.346       .  D
C939        H951   1.085       .  S
C940        C941   1.487       .  S
C940        H952   1.086       .  S
C941        C942   1.400       .  A
C941        C946   1.411       .  A
C942        C943   1.392       .  A
C942        H953   1.084       .  S
C943        C944   1.406       .  A
C943        H954   1.082       .  S
C944        C945   1.405       .  A
C945        C946   1.405       .  A
C945        H955   1.083       .  S
C946        H956   1.081       .  S
C957        C958   1.401       .  A
C957        C962   1.405       .  A
C958        C959   1.402       .  A
C958        H971   1.083       .  S
C959        C960   1.408       .  A
C959        H972   1.083       .  S
C960        C961   1.407       .  A
C960        C963   1.492       .  S
C961        C962   1.395       .  A
C961        H973   1.080       .  S
C962        H974   1.083       .  S
C963        C964   1.353       .  D
C963        H975   1.084       .  S
C964        C965   1.493       .  S
C964        H976   1.084       .  S
C965        C966   1.408       .  A
C965        C970   1.406       .  A
C966        C967   1.403       .  A
C966        H977   1.083       .  S
C967        C968   1.404       .  A
C967        H978   1.082       .  S
C968        C969   1.408       .  A
C969        C970   1.396       .  A
C969        H979   1.081       .  S
C970        H980   1.080       .  S
C981        C982   1.401       .  A
C981        C986   1.405       .  A
C982        C983   1.402       .  A
C982        H995   1.083       .  S
C983        C984   1.407       .  A
C983        H996   1.083       .  S
C984        C985   1.407       .  A
C984        C987   1.492       .  S
C985        C986   1.397       .  A
C985        H997   1.081       .  S
C986        H998   1.083       .  S
C987        C988   1.353       .  D
C987        H999   1.083       .  S
C988        C989   1.494       .  S
C988       H1000   1.084       .  S
C989        C990   1.406       .  A
C989        C994   1.407       .  A
C990        C991   1.402       .  A
C990       H1001   1.083       .  S
C991        C992   1.406       .  A
C991       H1002   1.082       .  S
C992        C993   1.409       .  A
C993        C994   1.398       .  A
C993       H1003   1.080       .  S
C994       H1004   1.080       .  S
C1005      C1006   1.401       .  A
C1005      C1010   1.401       .  A
C1006      C1007   1.402       .  A
C1006      H1019   1.084       .  S
C1007      C1008   1.410       .  A
C1007      H1020   1.083       .  S
C1008      C1009   1.410       .  A
C1008      C1011   1.497       .  S
C1009      C1010   1.398       .  A
C1009      H1021   1.080       .  S
C1010      H1022   1.083       .  S
C1011      C1012   1.354       .  D
C1011      H1023   1.082       .  S
C1012      C1013   1.497       .  S
C1012      H1024   1.082       .  S
C1013      C1014   1.408       .  A
C1013      C1018   1.408       .  A
C1014      C1015   1.401       .  A
C1014      H1025   1.083       .  S
C1015      C1016   1.402       .  A
C1015      H1026   1.083       .  S
C1016      C1017   1.407       .  A
C1017      C1018   1.399       .  A
C1017      H1027   1.082       .  S
C1018      H1028   1.080       .  S
C1029      C1030   1.404       .  A
C1029      C1034   1.408       .  A
C1030      C1031   1.402       .  A
C1030      H1043   1.082       .  S
C1031      C1032   1.407       .  A
C1031      H1044   1.083       .  S
C1032      C1033   1.407       .  A
C1032      C1035   1.493       .  S
C1033      C1034   1.398       .  A
C1033      H1045   1.080       .  S
C1034      H1046   1.082       .  S
C1035      C1036   1.353       .  D
C1035      H1047   1.084       .  S
C1036      C1037   1.492       .  S
C1036      H1048   1.083       .  S
C1037      C1038   1.407       .  A
C1037      C1042   1.407       .  A
C1038      C1039   1.402       .  A
C1038      H1049   1.082       .  S
C1039      C1040   1.403       .  A
C1039      H1050   1.083       .  S
C1040      C1041   1.406       .  A
C1041      C1042   1.397       .  A
C1041      H1051   1.082       .  S
C1042      H1052   1.082       .  S
C1053      C1054   1.407       .  A
C1053      C1058   1.403       .  A
C1054      C1055   1.393       .  A
C1054      H1067   1.083       .  S
C1055      C1056   1.400       .  A
C1055      H1068   1.084       .  S
C1056      C1057   1.411       .  A
C1056      C1059   1.487       .  S
C1057      C1058   1.403       .  A
C1057      H1069   1.081       .  S
C1058      H1070   1.083       .  S
C1059      C1060   1.345       .  D
C1059      H1071   1.085       .  S
C1060      C1061   1.488       .  S
C1060      H1072   1.085       .  S
C1061      C1062   1.401       .  A
C1061      C1066   1.410       .  A
C1062      C1063   1.395       .  A
C1062      H1073   1.083       .  S
C1063      C1064   1.406       .  A
C1063      H1074   1.082       .  S
C1064      C1065   1.405       .  A
C1065      C1066   1.403       .  A
C1065      H1075   1.082       .  S
C1066      H1076   1.082       .  S
C1077      C1078   1.401       .  A
C1077      C1082   1.406       .  A
C1078      C1079   1.403       .  A
C1078      H1091   1.083       .  S
C1079      C1080   1.409       .  A
C1079      H1092   1.083       .  S
C1080      C1081   1.407       .  A
C1080      C1083   1.494       .  S
C1081      C1082   1.396       .  A
C1081      H1093   1.081       .  S
C1082      H1094   1.083       .  S
C1083      C1084   1.353       .  D
C1083      H1095   1.084       .  S
C1084      C1085   1.493       .  S
C1084      H1096   1.084       .  S
C1085      C1086   1.407       .  A
C1085      C1090   1.406       .  A
C1086      C1087   1.404       .  A
C1086      H1097   1.083       .  S
C1087      C1088   1.405       .  A
C1087      H1098   1.082       .  S
C1088      C1089   1.408       .  A
C1089      C1090   1.397       .  A
C1089      H1099   1.081       .  S
C1090      H1100   1.081       .  S
C1101      C1102   1.402       .  A
C1101      C1106   1.407       .  A
C1102      C1103   1.403       .  A
C1102      H1115   1.083       .  S
C1103      C1104   1.409       .  A
C1103      H1116   1.083       .  S
C1104      C1105   1.406       .  A
C1104      C1107   1.494       .  S
C1105      C1106   1.395       .  A
C1105      H1117   1.080       .  S
C1106      H1118   1.083       .  S
C1107      C1108   1.354       .  D
C1107      H1119   1.081       .  S
C1108      C1109   1.497       .  S
C1108      H1120   1.083       .  S
C1109      C1110   1.409       .  A
C1109      C1114   1.408       .  A
C1110      C1111   1.403       .  A
C1110      H1121   1.083       .  S
C1111      C1112   1.404       .  A
C1111      H1122   1.082       .  S
C1112      C1113   1.406       .  A
C1113      C1114   1.397       .  A
C1113      H1123   1.082       .  S
C1114      H1124   1.078       .  S
C1125      C1126   1.407       .  A
C1125      C1130   1.409       .  A
C1126      C1127   1.405       .  A
C1126      H1139   1.082       .  S
C1127      C1128   1.406       .  A
C1127      H1140   1.083       .  S
C1128      C1129   1.404       .  A
C1128      C1131   1.491       .  S
C1129      C1130   1.395       .  A
C1129      H1141   1.082       .  S
C1130      H1142   1.080       .  S
C1131      C1132   1.351       .  D
C1131      H1143   1.085       .  S
C1132      C1133   1.488       .  S
C1132      H1144   1.085       .  S
C1133      C1134   1.406       .  A
C1133      C1138   1.407       .  A
C1134      C1135   1.400       .  A
C1134      H1145   1.083       .  S
C1135      C1136   1.403       .  A
C1135      H1146   1.083       .  S
C1136      C1137   1.402       .  A
C1137      C1138   1.400       .  A
C1137      H1147   1.083       .  S
C1138      H1148   1.082       .  S
C1149      C1150   1.406       .  A
C1149      C1154   1.406       .  A
C1150      C1151   1.396       .  A
C1150      H1163   1.082       .  S
C1151      C1152   1.402       .  A
C1151      H1164   1.083       .  S
C1152      C1153   1.411       .  A
C1152      C1155   1.492       .  S
C1153      C1154   1.406       .  A
C1153      H1165   1.081       .  S
C1154      H1166   1.082       .  S
C1155      C1156   1.349       .  D
C1155      H1167   1.085       .  S
C1156      C1157   1.494       .  S
C1156      H1168   1.085       .  S
C1157      C1158   1.404       .  A
C1157      C1162   1.411       .  A
C1158      C1159   1.399       .  A
C1158      H1169   1.083       .  S
C1159      C1160   1.403       .  A
C1159      H1170   1.083       .  S
C1160      C1161   1.404       .  A
C1161      C1162   1.402       .  A
C1161      H1171   1.083       .  S
C1162      H1172   1.081       .  S
C1173      C1174   1.402       .  A
C1173      C1178   1.401       .  A
C1174      C1175   1.398       .  A
C1174      H1187   1.083       .  S
C1175      C1176   1.405       .  A
C1175      H1188   1.083       .  S
C1176      C1177   1.408       .  A
C1176      C1179   1.486       .  S
C1177      C1178   1.398       .  A
C1177      H1189   1.082       .  S
C1178      H1190   1.083       .  S
C1179      C1180   1.351       .  D
C1179      H1191   1.082       .  S
C1180      C1181   1.493       .  S
C1180      H1192   1.086       .  S
C1181      C1182   1.406       .  A
C1181      C1186   1.407       .  A
C1182      C1183   1.401       .  A
C1182      H1193   1.083       .  S
C1183      C1184   1.406       .  A
C1183      H1194   1.081       .  S
C1184      C1185   1.408       .  A
C1185      C1186   1.396       .  A
C1185      H1195   1.080       .  S
C1186      H1196   1.079       .  S
C1197      C1198   1.403       .  A
C1197      C1202   1.403       .  A
C1198      C1199   1.401       .  A
C1198      H1211   1.083       .  S
C1199      C1200   1.406       .  A
C1199      H1212   1.083       .  S
C1200      C1201   1.407       .  A
C1200      C1203   1.488       .  S
C1201      C1202   1.398       .  A
C1201      H1213   1.082       .  S
C1202      H1214   1.083       .  S
C1203      C1204   1.351       .  D
C1203      H1215   1.086       .  S
C1204      C1205   1.490       .  S
C1204      H1216   1.086       .  S
C1205      C1206   1.406       .  A
C1205      C1210   1.405       .  A
C1206      C1207   1.403       .  A
C1206      H1217   1.083       .  S
C1207      C1208   1.405       .  A
C1207      H1218   1.082       .  S
C1208      C1209   1.409       .  A
C1209      C1210   1.398       .  A
C1209      H1219   1.081       .  S
C1210      H1220   1.082       .  S
C1221      C1222   1.403       .  A
C1221      C1226   1.404       .  A
C1222      C1223   1.397       .  A
C1222      H1235   1.083       .  S
C1223      C1224   1.403       .  A
C1223      H1236   1.084       .  S
C1224      C1225   1.411       .  A
C1224      C1227   1.491       .  S
C1225      C1226   1.403       .  A
C1225      H1237   1.081       .  S
C1226      H1238   1.083       .  S
C1227      C1228   1.347       .  D
C1227      H1239   1.086       .  S
C1228      C1229   1.490       .  S
C1228      H1240   1.086       .  S
C1229      C1230   1.402       .  A
C1229      C1234   1.412       .  A
C1230      C1231   1.395       .  A
C1230      H1241   1.084       .  S
C1231      C1232   1.404       .  A
C1231      H1242   1.083       .  S
C1232      C1233   1.404       .  A
C1233      C1234   1.406       .  A
C1233      H1243   1.083       .  S
C1234      H1244   1.082       .  S
C1245      C1246   1.407       .  A
C1245      C1250   1.405       .  A
C1246      C1247   1.394       .  A
C1246      H1259   1.082       .  S
C1247      C1248   1.400       .  A
C1247      H1260   1.083       .  S
C1248      C1249   1.411       .  A
C1248      C1251   1.488       .  S
C1249      C1250   1.406       .  A
C1249      H1261   1.082       .  S
C1250      H1262   1.082       .  S
C1251      C1252   1.347       .  D
C1251      H1263   1.084       .  S
C1252      C1253   1.493       .  S
C1252      H1264   1.086       .  S
C1253      C1254   1.404       .  A
C1253      C1258   1.413       .  A
C1254      C1255   1.397       .  A
C1254      H1265   1.084       .  S
C1255      C1256   1.403       .  A
C1255      H1266   1.083       .  S
C1256      C1257   1.402       .  A
C1257      C1258   1.402       .  A
C1257      H1267   1.083       .  S
C1258      H1268   1.080       .  S
C1269      C1270   1.405       .  A
C1269      C1274   1.408       .  A
C1270      C1271   1.402       .  A
C1270      H1283   1.082       .  S
C1271      C1272   1.406       .  A
C1271      H1284   1.083       .  S
C1272      C1273   1.404       .  A
C1272      C1275   1.488       .  S
C1273      C1274   1.393       .  A
C1273      H1285   1.081       .  S
C1274      H1286   1.079       .  S
C1275      C1276   1.351       .  D
C1275      H1287   1.084       .  S
C1276      C1277   1.488       .  S
C1276      H1288   1.084       .  S
C1277      C1278   1.408       .  A
C1277      C1282   1.406       .  A
C1278      C1279   1.402       .  A
C1278      H1289   1.083       .  S
C1279      C1280   1.401       .  A
C1279      H1290   1.083       .  S
C1280      C1281   1.406       .  A
C1281      C1282   1.393       .  A
C1281      H1291   1.083       .  S
C1282      H1292   1.080       .  S
C1293      C1294   1.402       .  A
C1293      C1298   1.405       .  A
C1294      C1295   1.404       .  A
C1294      H1307   1.083       .  S
C1295      C1296   1.408       .  A
C1295      H1308   1.083       .  S
C1296      C1297   1.408       .  A
C1296      C1299   1.496       .  S
C1297      C1298   1.397       .  A
C1297      H1309   1.080       .  S
C1298      H1310   1.083       .  S
C1299      C1300   1.354       .  D
C1299      H1311   1.084       .  S
C1300      C1301   1.495       .  S
C1300      H1312   1.083       .  S
C1301      C1302   1.407       .  A
C1301      C1306   1.406       .  A
C1302      C1303   1.402       .  A
C1302      H1313   1.083       .  S
C1303      C1304   1.405       .  A
C1303      H1314   1.082       .  S
C1304      C1305   1.410       .  A
C1305      C1306   1.400       .  A
C1305      H1315   1.081       .  S
C1306      H1316   1.081       .  S
C1317      C1318   1.403       .  A
C1317      C1322   1.407       .  A
C1318      C1319   1.404       .  A
C1318      H1331   1.083       .  S
C1319      C1320   1.408       .  A
C1319      H1332   1.083       .  S
C1320      C1321   1.407       .  A
C1320      C1323   1.495       .  S
C1321      C1322   1.397       .  A
C1321      H1333   1.081       .  S
C1322      H1334   1.083       .  S
C1323      C1324   1.354       .  D
C1323      H1335   1.083       .  S
C1324      C1325   1.497       .  S
C1324      H1336   1.084       .  S
C1325      C1326   1.408       .  A
C1325      C1330   1.407       .  A
C1326      C1327   1.403       .  A
C1326      H1337   1.083       .  S
C1327      C1328   1.405       .  A
C1327      H1338   1.082       .  S
C1328      C1329   1.409       .  A
C1329      C1330   1.399       .  A
C1329      H1339   1.080       .  S
C1330      H1340   1.080       .  S
C1341      C1342   1.402       .  A
C1341      C1346   1.406       .  A
C1342      C1343   1.402       .  A
C1342      H1355   1.083       .  S
C1343      C1344   1.407       .  A
C1343      H1356   1.083       .  S
C1344      C1345   1.406       .  A
C1344      C1347   1.490       .  S
C1345      C1346   1.396       .  A
C1345      H1357   1.081       .  S
C1346      H1358   1.083       .  S
C1347      C1348   1.352       .  D
C1347      H1359   1.083       .  S
C1348      C1349   1.492       .  S
C1348      H1360   1.085       .  S
C1349      C1350   1.407       .  A
C1349      C1354   1.407       .  A
C1350      C1351   1.403       .  A
C1350      H1361   1.083       .  S
C1351      C1352   1.404       .  A
C1351      H1362   1.082       .  S
C1352      C1353   1.407       .  A
C1353      C1354   1.397       .  A
C1353      H1363   1.082       .  S
C1354      H1364   1.080       .  S
C1365      C1366   1.408       .  A
C1365      C1370   1.405       .  A
C1366      C1367   1.396       .  A
C1366      H1379   1.081       .  S
C1367      C1368   1.400       .  A
C1367      H1380   1.084       .  S
C1368      C1369   1.411       .  A
C1368      C1371   1.489       .  S
C1369      C1370   1.402       .  A
C1369      H1381   1.081       .  S
C1370      H1382   1.082       .  S
C1371      C1372   1.345       .  D
C1371      H1383   1.085       .  S
C1372      C1373   1.487       .  S
C1372      H1384   1.085       .  S
C1373      C1374   1.399       .  A
C1373      C1378   1.411       .  A
C1374      C1375   1.392       .  A
C1374      H1385   1.084       .  S
C1375      C1376   1.407       .  A
C1375      H1386   1.082       .  S
C1376      C1377   1.404       .  A
C1377      C1378   1.405       .  A
C1377      H1387   1.083       .  S
C1378      H1388   1.081       .  S
C1389      C1390   1.405       .  A
C1389      C1394   1.409       .  A
C1390      C1391   1.403       .  A
C1390      H1403   1.082       .  S
C1391      C1392   1.406       .  A
C1391      H1404   1.083       .  S
C1392      C1393   1.405       .  A
C1392      C1395   1.491       .  S
C1393      C1394   1.398       .  A
C1393      H1405   1.081       .  S
C1394      H1406   1.081       .  S
C1395      C1396   1.351       .  D
C1395      H1407   1.085       .  S
C1396      C1397   1.490       .  S
C1396      H1408   1.085       .  S
C1397      C1398   1.407       .  A
C1397      C1402   1.407       .  A
C1398      C1399   1.402       .  A
C1398      H1409   1.083       .  S
C1399      C1400   1.403       .  A
C1399      H1410   1.083       .  S
C1400      C1401   1.402       .  A
C1401      C1402   1.398       .  A
C1401      H1411   1.083       .  S
C1402      H1412   1.082       .  S
C1413      C1414   1.402       .  A
C1413      C1418   1.401       .  A
C1414      C1415   1.402       .  A
C1414      H1427   1.083       .  S
C1415      C1416   1.407       .  A
C1415      H1428   1.083       .  S
C1416      C1417   1.407       .  A
C1416      C1419   1.488       .  S
C1417      C1418   1.398       .  A
C1417      H1429   1.082       .  S
C1418      H1430   1.084       .  S
C1419      C1420   1.350       .  D
C1419      H1431   1.085       .  S
C1420      C1421   1.490       .  S
C1420      H1432   1.086       .  S
C1421      C1422   1.405       .  A
C1421      C1426   1.405       .  A
C1422      C1423   1.402       .  A
C1422      H1433   1.083       .  S
C1423      C1424   1.406       .  A
C1423      H1434   1.082       .  S
C1424      C1425   1.409       .  A
C1425      C1426   1.398       .  A
C1425      H1435   1.081       .  S
C1426      H1436   1.081       .  S
C1437      C1438   1.405       .  A
C1437      C1442   1.405       .  A
C1438      C1439   1.396       .  A
C1438      H1451   1.082       .  S
C1439      C1440   1.402       .  A
C1439      H1452   1.084       .  S
C1440      C1441   1.413       .  A
C1440      C1443   1.494       .  S
C1441      C1442   1.405       .  A
C1441      H1453   1.080       .  S
C1442      H1454   1.083       .  S
C1443      C1444   1.348       .  D
C1443      H1455   1.083       .  S
C1444      C1445   1.496       .  S
C1444      H1456   1.084       .  S
C1445      C1446   1.402       .  A
C1445      C1450   1.415       .  A
C1446      C1447   1.393       .  A
C1446      H1457   1.084       .  S
C1447      C1448   1.406       .  A
C1447      H1458   1.083       .  S
C1448      C1449   1.401       .  A
C1449      C1450   1.405       .  A
C1449      H1459   1.083       .  S
C1450      H1460   1.079       .  S
C1461      C1462   1.402       .  A
C1461      C1466   1.405       .  A
C1462      C1463   1.402       .  A
C1462      H1475   1.083       .  S
C1463      C1464   1.407       .  A
C1463      H1476   1.083       .  S
C1464      C1465   1.408       .  A
C1464      C1467   1.492       .  S
C1465      C1466   1.397       .  A
C1465      H1477   1.080       .  S
C1466      H1478   1.083       .  S
C1467      C1468   1.352       .  D
C1467      H1479   1.084       .  S
C1468      C1469   1.491       .  S
C1468      H1480   1.084       .  S
C1469      C1470   1.405       .  A
C1469      C1474   1.407       .  A
C1470      C1471   1.400       .  A
C1470      H1481   1.083       .  S
C1471      C1472   1.405       .  A
C1471      H1482   1.082       .  S
C1472      C1473   1.408       .  A
C1473      C1474   1.399       .  A
C1473      H1483   1.081       .  S
C1474      H1484   1.081       .  S
C1485      C1486   1.405       .  A
C1485      C1490   1.407       .  A
C1486      C1487   1.402       .  A
C1486      H1499   1.082       .  S
C1487      C1488   1.408       .  A
C1487      H1500   1.083       .  S
C1488      C1489   1.407       .  A
C1488      C1491   1.494       .  S
C1489      C1490   1.395       .  A
C1489      H1501   1.079       .  S
C1490      H1502   1.081       .  S
C1491      C1492   1.353       .  D
C1491      H1503   1.084       .  S
C1492      C1493   1.490       .  S
C1492      H1504   1.082       .  S
C1493      C1494   1.407       .  A
C1493      C1498   1.406       .  A
C1494      C1495   1.401       .  A
C1494      H1505   1.083       .  S
C1495      C1496   1.402       .  A
C1495      H1506   1.083       .  S
C1496      C1497   1.406       .  A
C1497      C1498   1.395       .  A
C1497      H1507   1.083       .  S
C1498      H1508   1.081       .  S
C1509      C1510   1.406       .  A
C1509      C1514   1.405       .  A
C1510      C1511   1.397       .  A
C1510      H1523   1.082       .  S
C1511      C1512   1.402       .  A
C1511      H1524   1.083       .  S
C1512      C1513   1.412       .  A
C1512      C1515   1.493       .  S
C1513      C1514   1.404       .  A
C1513      H1525   1.081       .  S
C1514      H1526   1.082       .  S
C1515      C1516   1.347       .  D
C1515      H1527   1.086       .  S
C1516      C1517   1.490       .  S
C1516      H1528   1.084       .  S
C1517      C1518   1.401       .  A
C1517      C1522   1.410       .  A
C1518      C1519   1.395       .  A
C1518      H1529   1.084       .  S
C1519      C1520   1.408       .  A
C1519      H1530   1.082       .  S
C1520      C1521   1.405       .  A
C1521      C1522   1.405       .  A
C1521      H1531   1.083       .  S
C1522      H1532   1.082       .  S
C1533      C1534   1.407       .  A
C1533      C1538   1.405       .  A
C1534      C1535   1.398       .  A
C1534      H1547   1.082       .  S
C1535      C1536   1.403       .  A
C1535      H1548   1.083       .  S
C1536      C1537   1.412       .  A
C1536      C1539   1.496       .  S
C1537      C1538   1.404       .  A
C1537      H1549   1.081       .  S
C1538      H1550   1.082       .  S
C1539      C1540   1.348       .  D
C1539      H1551   1.085       .  S
C1540      C1541   1.493       .  S
C1540      H1552   1.084       .  S
C1541      C1542   1.401       .  A
C1541      C1546   1.412       .  A
C1542      C1543   1.394       .  A
C1542      H1553   1.084       .  S
C1543      C1544   1.408       .  A
C1543      H1554   1.082       .  S
C1544      C1545   1.406       .  A
C1545      C1546   1.408       .  A
C1545      H1555   1.082       .  S
C1546      H1556   1.081       .  S
C1557      C1558   1.402       .  A
C1557      C1562   1.404       .  A
C1558      C1559   1.401       .  A
C1558      H1571   1.083       .  S
C1559      C1560   1.407       .  A
C1559      H1572   1.083       .  S
C1560      C1561   1.406       .  A
C1560      C1563   1.487       .  S
C1561      C1562   1.392       .  A
C1561      H1573   1.080       .  S
C1562      H1574   1.083       .  S
C1563      C1564   1.350       .  D
C1563      H1575   1.083       .  S
C1564      C1565   1.488       .  S
C1564      H1576   1.085       .  S
C1565      C1566   1.406       .  A
C1565      C1570   1.407       .  A
C1566      C1567   1.399       .  A
C1566      H1577   1.084       .  S
C1567      C1568   1.403       .  A
C1567      H1578   1.082       .  S
C1568      C1569   1.405       .  A
C1569      C1570   1.395       .  A
C1569      H1579   1.082       .  S
C1570      H1580   1.079       .  S
C1581      C1582   1.401       .  A
C1581      C1586   1.403       .  A
C1582      C1583   1.398       .  A
C1582      H1595   1.083       .  S
C1583      C1584   1.404       .  A
C1583      H1596   1.084       .  S
C1584      C1585   1.410       .  A
C1584      C1587   1.489       .  S
C1585      C1586   1.400       .  A
C1585      H1597   1.081       .  S
C1586      H1598   1.083       .  S
C1587      C1588   1.348       .  D
C1587      H1599   1.085       .  S
C1588      C1589   1.487       .  S
C1588      H1600   1.085       .  S
C1589      C1590   1.402       .  A
C1589      C1594   1.410       .  A
C1590      C1591   1.396       .  A
C1590      H1601   1.083       .  S
C1591      C1592   1.405       .  A
C1591      H1602   1.083       .  S
C1592      C1593   1.404       .  A
C1593      C1594   1.402       .  A
C1593      H1603   1.083       .  S
C1594      H1604   1.082       .  S
C1605      C1606   1.406       .  A
C1605      C1610   1.406       .  A
C1606      C1607   1.392       .  A
C1606      H1619   1.082       .  S
C1607      C1608   1.399       .  A
C1607      H1620   1.083       .  S
C1608      C1609   1.409       .  A
C1608      C1611   1.484       .  S
C1609      C1610   1.405       .  A
C1609      H1621   1.082       .  S
C1610      H1622   1.082       .  S
C1611      C1612   1.346       .  D
C1611      H1623   1.083       .  S
C1612      C1613   1.490       .  S
C1612      H1624   1.085       .  S
C1613      C1614   1.403       .  A
C1613      C1618   1.412       .  A
C1614      C1615   1.397       .  A
C1614      H1625   1.082       .  S
C1615      C1616   1.401       .  A
C1615      H1626   1.084       .  S
C1616      C1617   1.400       .  A
C1617      C1618   1.399       .  A
C1617      H1627   1.082       .  S
C1618      H1628   1.081       .  S
C1629      C1630   1.402       .  A
C1629      C1634   1.407       .  A
C1630      C1631   1.403       .  A
C1630      H1643   1.083       .  S
C1631      C1632   1.407       .  A
C1631      H1644   1.083       .  S
C1632      C1633   1.407       .  A
C1632      C1635   1.493       .  S
C1633      C1634   1.400       .  A
C1633      H1645   1.082       .  S
C1634      H1646   1.083       .  S
C1635      C1636   1.353       .  D
C1635      H1647   1.085       .  S
C1636      C1637   1.494       .  S
C1636      H1648   1.085       .  S
C1637      C1638   1.407       .  A
C1637      C1642   1.405       .  A
C1638      C1639   1.405       .  A
C1638      H1649   1.083       .  S
C1639      C1640   1.407       .  A
C1639      H1650   1.082       .  S
C1640      C1641   1.409       .  A
C1641      C1642   1.397       .  A
C1641      H1651   1.080       .  S
C1642      H1652   1.081       .  S
C1653      C1654   1.405       .  A
C1653      C1658   1.408       .  A
C1654      C1655   1.402       .  A
C1654      H1667   1.082       .  S
C1655      C1656   1.406       .  A
C1655      H1668   1.083       .  S
C1656      C1657   1.407       .  A
C1656      C1659   1.493       .  S
C1657      C1658   1.398       .  A
C1657      H1669   1.081       .  S
C1658      H1670   1.081       .  S
C1659      C1660   1.353       .  D
C1659      H1671   1.083       .  S
C1660      C1661   1.494       .  S
C1660      H1672   1.084       .  S
C1661      C1662   1.408       .  A
C1661      C1666   1.408       .  A
C1662      C1663   1.402       .  A
C1662      H1673   1.083       .  S
C1663      C1664   1.402       .  A
C1663      H1674   1.083       .  S
C1664      C1665   1.407       .  A
C1665      C1666   1.398       .  A
C1665      H1675   1.083       .  S
C1666      H1676   1.081       .  S
C1677      C1678   1.406       .  A
C1677      C1682   1.405       .  A
C1678      C1679   1.396       .  A
C1678      H1691   1.083       .  S
C1679      C1680   1.402       .  A
C1679      H1692   1.083       .  S
C1680      C1681   1.411       .  A
C1680      C1683   1.492       .  S
C1681      C1682   1.404       .  A
C1681      H1693   1.081       .  S
C1682      H1694   1.082       .  S
C1683      C1684   1.347       .  D
C1683      H1695   1.086       .  S
C1684      C1685   1.488       .  S
C1684      H1696   1.084       .  S
C1685      C1686   1.400       .  A
C1685      C1690   1.410       .  A
C1686      C1687   1.394       .  A
C1686      H1697   1.083       .  S
C1687      C1688   1.407       .  A
C1687      H1698   1.083       .  S
C1688      C1689   1.404       .  A
C1689      C1690   1.404       .  A
C1689      H1699   1.082       .  S
C1690      H1700   1.082       .  S
C1701      C1702   1.405       .  A
C1701      C1706   1.405       .  A
C1702      C1703   1.396       .  A
C1702      H1715   1.082       .  S
C1703      C1704   1.402       .  A
C1703      H1716   1.083       .  S
C1704      C1705   1.410       .  A
C1704      C1707   1.489       .  S
C1705      C1706   1.404       .  A
C1705      H1717   1.082       .  S
C1706      H1718   1.083       .  S
C1707      C1708   1.347       .  D
C1707      H1719   1.084       .  S
C1708      C1709   1.492       .  S
C1708      H1720   1.086       .  S
C1709      C1710   1.404       .  A
C1709      C1714   1.412       .  A
C1710      C1711   1.397       .  A
C1710      H1721   1.084       .  S
C1711      C1712   1.402       .  A
C1711      H1722   1.083       .  S
C1712      C1713   1.403       .  A
C1713      C1714   1.401       .  A
C1713      H1723   1.084       .  S
C1714      H1724   1.080       .  S
C1725      C1726   1.402       .  A
C1725      C1730   1.405       .  A
C1726      C1727   1.396       .  A
C1726      H1739   1.084       .  S
C1727      C1728   1.403       .  A
C1727      H1740   1.083       .  S
C1728      C1729   1.410       .  A
C1728      C1731   1.489       .  S
C1729      C1730   1.405       .  A
C1729      H1741   1.083       .  S
C1730      H1742   1.083       .  S
C1731      C1732   1.349       .  D
C1731      H1743   1.084       .  S
C1732      C1733   1.494       .  S
C1732      H1744   1.085       .  S
C1733      C1734   1.406       .  A
C1733      C1738   1.409       .  A
C1734      C1735   1.402       .  A
C1734      H1745   1.083       .  S
C1735      C1736   1.405       .  A
C1735      H1746   1.083       .  S
C1736      C1737   1.402       .  A
C1737      C1738   1.399       .  A
C1737      H1747   1.083       .  S
C1738      H1748   1.081       .  S
C1749      C1750   1.407       .  A
C1749      C1754   1.405       .  A
C1750      C1751   1.397       .  A
C1750      H1763   1.082       .  S
C1751      C1752   1.402       .  A
C1751      H1764   1.083       .  S
C1752      C1753   1.411       .  A
C1752      C1755   1.493       .  S
C1753      C1754   1.405       .  A
C1753      H1765   1.081       .  S
C1754      H1766   1.082       .  S
C1755      C1756   1.349       .  D
C1755      H1767   1.085       .  S
C1756      C1757   1.491       .  S
C1756      H1768   1.085       .  S
C1757      C1758   1.404       .  A
C1757      C1762   1.411       .  A
C1758      C1759   1.398       .  A
C1758      H1769   1.083       .  S
C1759      C1760   1.401       .  A
C1759      H1770   1.084       .  S
C1760      C1761   1.404       .  A
C1761      C1762   1.403       .  A
C1761      H1771   1.083       .  S
C1762      H1772   1.081       .  S
C1773      C1774   1.406       .  A
C1773      C1778   1.408       .  A
C1774      C1775   1.401       .  A
C1774      H1787   1.082       .  S
C1775      C1776   1.405       .  A
C1775      H1788   1.083       .  S
C1776      C1777   1.406       .  A
C1776      C1779   1.489       .  S
C1777      C1778   1.397       .  A
C1777      H1789   1.081       .  S
C1778      H1790   1.081       .  S
C1779      C1780   1.351       .  D
C1779      H1791   1.085       .  S
C1780      C1781   1.487       .  S
C1780      H1792   1.085       .  S
C1781      C1782   1.408       .  A
C1781      C1786   1.406       .  A
C1782      C1783   1.397       .  A
C1782      H1793   1.081       .  S
C1783      C1784   1.400       .  A
C1783      H1794   1.084       .  S
C1784      C1785   1.401       .  A
C1785      C1786   1.400       .  A
C1785      H1795   1.083       .  S
C1786      H1796   1.083       .  S
C1797      C1798   1.404       .  A
C1797      C1802   1.405       .  A
C1798      C1799   1.404       .  A
C1798      H1811   1.083       .  S
C1799      C1800   1.408       .  A
C1799      H1812   1.083       .  S
C1800      C1801   1.406       .  A
C1800      C1803   1.491       .  S
C1801      C1802   1.393       .  A
C1801      H1813   1.080       .  S
C1802      H1814   1.083       .  S
C1803      C1804   1.352       .  D
C1803      H1815   1.084       .  S
C1804      C1805   1.489       .  S
C1804      H1816   1.084       .  S
C1805      C1806   1.406       .  A
C1805      C1810   1.405       .  A
C1806      C1807   1.400       .  A
C1806      H1817   1.083       .  S
C1807      C1808   1.405       .  A
C1807      H1818   1.082       .  S
C1808      C1809   1.409       .  A
C1809      C1810   1.398       .  A
C1809      H1819   1.081       .  S
C1810      H1820   1.081       .  S
C1821      C1822   1.407       .  A
C1821      C1826   1.402       .  A
C1822      C1823   1.394       .  A
C1822      H1835   1.083       .  S
C1823      C1824   1.402       .  A
C1823      H1836   1.084       .  S
C1824      C1825   1.413       .  A
C1824      C1827   1.492       .  S
C1825      C1826   1.404       .  A
C1825      H1837   1.080       .  S
C1826      H1838   1.083       .  S
C1827      C1828   1.347       .  D
C1827      H1839   1.085       .  S
C1828      C1829   1.491       .  S
C1828      H1840   1.084       .  S
C1829      C1830   1.401       .  A
C1829      C1834   1.411       .  A
C1830      C1831   1.396       .  A
C1830      H1841   1.084       .  S
C1831      C1832   1.408       .  A
C1831      H1842   1.081       .  S
C1832      C1833   1.406       .  A
C1833      C1834   1.404       .  A
C1833      H1843   1.083       .  S
C1834      H1844   1.081       .  S
C1845      C1846   1.405       .  A
C1845      C1850   1.408       .  A
C1846      C1847   1.403       .  A
C1846      H1859   1.082       .  S
C1847      C1848   1.407       .  A
C1847      H1860   1.083       .  S
C1848      C1849   1.406       .  A
C1848      C1851   1.492       .  S
C1849      C1850   1.396       .  A
C1849      H1861   1.081       .  S
C1850      H1862   1.081       .  S
C1851      C1852   1.352       .  D
C1851      H1863   1.084       .  S
C1852      C1853   1.492       .  S
C1852      H1864   1.084       .  S
C1853      C1854   1.408       .  A
C1853      C1858   1.407       .  A
C1854      C1855   1.401       .  A
C1854      H1865   1.083       .  S
C1855      C1856   1.401       .  A
C1855      H1866   1.083       .  S
C1856      C1857   1.406       .  A
C1857      C1858   1.397       .  A
C1857      H1867   1.083       .  S
C1858      H1868   1.080       .  S
C1869      C1870   1.407       .  A
C1869      C1874   1.403       .  A
C1870      C1871   1.395       .  A
C1870      H1883   1.083       .  S
C1871      C1872   1.402       .  A
C1871      H1884   1.083       .  S
C1872      C1873   1.414       .  A
C1872      C1875   1.496       .  S
C1873      C1874   1.406       .  A
C1873      H1885   1.080       .  S
C1874      H1886   1.083       .  S
C1875      C1876   1.347       .  D
C1875      H1887   1.085       .  S
C1876      C1877   1.492       .  S
C1876      H1888   1.083       .  S
C1877      C1878   1.400       .  A
C1877      C1882   1.411       .  A
C1878      C1879   1.395       .  A
C1878      H1889   1.084       .  S
C1879      C1880   1.408       .  A
C1879      H1890   1.081       .  S
C1880      C1881   1.406       .  A
C1881      C1882   1.406       .  A
C1881      H1891   1.082       .  S
C1882      H1892   1.081       .  S
