geometry optimzed in LAMMPS
_audit_creation_date              2020-11-30 
_audit_creation_method            'lammps2cif' 
_symmetry_space_group_name_H-M    'P1' 
_symmetry_Int_Tables_number       1 
_symmetry_cell_setting            triclinic 
loop_ 
_symmetry_equiv_pos_as_xyz 
  x,y,z 
_cell_length_a                    39.40205525 
_cell_length_b                    38.59901963253575 
_cell_length_c                    29.14664448689666 
_cell_angle_alpha                 90.18085786700736 
_cell_angle_beta                  90.34782331080856 
_cell_angle_gamma                 90.02861122692566 
loop_ 
_atom_site_label 
_atom_site_type_symbol 
_atom_site_fract_x 
_atom_site_fract_y 
_atom_site_fract_z 
_atom_site_charge 
O1          O  0.25959331  0.19023342  0.36407612    -0.79100
O2          O  0.26220960  0.19165929  0.62794255    -0.80600
O3          O  0.31154794  0.15098498  0.49886333    -0.77600
O4          O  0.20037049  0.16016413  0.50158390    -0.76000
O5          O  0.16116557  0.20362110  0.49872788    -0.77800
O6          O  0.35408014  0.19094232  0.49336505    -0.78700
O7          O  0.25819311  0.15338761  0.56812396    -0.80100
O8          O  0.25668386  0.15175783  0.42344462    -0.80300
Eu9        Eu  0.25781151  0.18335690  0.49531210     2.39200
O10         O  0.22664668  0.21970389  0.54368997    -0.87900
O11         O  0.29245721  0.21505082  0.44546287    -0.91500
C12         C  0.25848330  0.15875340  0.38043168     1.03200
C13         C  0.26066950  0.16034847  0.61115134     1.03000
C14         C  0.34309835  0.15974348  0.49733120     1.03000
C15         C  0.16974536  0.17175226  0.50255909     1.00800
H16         H  0.30747359  0.20065888  0.56049916     0.30600
O17         O  0.29357200  0.21598429  0.54285366    -1.00200
H18         H  0.20958379  0.20466331  0.42967705     0.30600
O19         O  0.22501250  0.21900646  0.44731278    -1.02800
O20         O  0.26347931  0.31186354  0.62933569    -0.80000
O21         O  0.26065289  0.31228277  0.36387117    -0.79600
O22         O  0.35885373  0.24392668  0.56517698    -0.78000
O23         O  0.16543341  0.25189999  0.56927593    -0.81300
O24         O  0.16352219  0.25618455  0.42384452    -0.79200
O25         O  0.35571764  0.24707096  0.41905622    -0.77800
O26         O  0.32036777  0.34525293  0.50273171    -0.79400
O27         O  0.21093084  0.35302936  0.50256381    -0.81300
O28         O  0.35948895  0.30177110  0.49814721    -0.78000
O29         O  0.16827405  0.31308805  0.50098826    -0.80700
O30         O  0.32215525  0.24821035  0.62570365    -0.76400
O31         O  0.31772080  0.25001638  0.35955645    -0.76500
O32         O  0.20023460  0.25174694  0.36354609    -0.76100
O33         O  0.20366854  0.24908492  0.62865480    -0.79600
O34         O  0.26489481  0.34953143  0.56924009    -0.79000
O35         O  0.26400538  0.35107412  0.42328622    -0.77400
Eu36       Eu  0.26239712  0.25175988  0.59372044     2.39800
Eu37       Eu  0.25975796  0.25151735  0.39688629     2.39600
Eu38       Eu  0.32780437  0.24808570  0.49324626     2.38400
Eu39       Eu  0.19424800  0.25595445  0.49610650     2.39900
Eu40       Eu  0.26390273  0.32019462  0.49587533     2.39800
O41         O  0.22816052  0.28844832  0.44657776    -0.91800
O42         O  0.29687017  0.28411233  0.54288504    -0.90700
C43         C  0.26416044  0.34311301  0.61239821     1.03400
C44         C  0.26234880  0.34379865  0.38019115     1.02100
C45         C  0.35239421  0.24462720  0.60838457     1.01500
C46         C  0.17283268  0.24890726  0.61210205     1.03500
C47         C  0.16981183  0.25408066  0.38069806     1.02400
C48         C  0.34850732  0.24776868  0.37594435     1.01300
C49         C  0.35095478  0.33364250  0.50317752     1.01300
C50         C  0.17941493  0.34431621  0.50422423     1.04000
H51         H  0.31057511  0.29910526  0.42807316     0.31300
O52         O  0.29555395  0.28477840  0.44613173    -1.03900
H53         H  0.21564391  0.30290754  0.56418535     0.33400
O54         O  0.22933918  0.28804325  0.54531846    -1.06500
N55         N  0.06374438  0.50586723  0.54622856    -0.35500
N56         N  0.51354304  0.44870890  0.52626433    -0.56100
N57         N  0.45979460  0.49819893  0.54145751    -0.35500
N58         N  0.51113611  0.05443914  0.53180198    -0.56100
C59         C  0.08227800  0.47831768  0.53287962     0.28100
C60         C  0.07919880  0.03507889  0.52129634     0.28100
C61         C  0.44272089  0.46963526  0.52784237     0.28100
C62         C  0.44281982  0.02615021  0.51893301     0.28100
C63         C  0.04397357  0.43210073  0.56001061     0.36700
C64         C  0.48855178  0.42735695  0.53967311     0.36700
C65         C  0.03437527  0.07636477  0.54329227     0.36700
C66         C  0.48286165  0.07354832  0.53685012     0.36700
C67         C  0.10953974  0.48920794  0.50665854    -0.20800
C68         C  0.10897442  0.02708034  0.49835776    -0.20800
C69         C  0.41174305  0.47894420  0.50867877    -0.20800
C70         C  0.41344439  0.01365100  0.49841687    -0.20800
C71         C  0.03666552  0.39863392  0.57412017    -0.21900
C72         C  0.50165257  0.39524447  0.55148373    -0.21900
C73         C  0.02216125  0.10840916  0.55716563    -0.21900
C74         C  0.49104501  0.10731925  0.54879857    -0.21900
C75         C  0.07592846  0.44375675  0.54536944    -0.17200
C76         C  0.06817103  0.06882809  0.53199895    -0.17200
C77         C  0.45032516  0.06151633  0.52534303    -0.17200
C78         C  0.45402105  0.43540747  0.53433952    -0.17200
H79         H  0.12896381  0.47334250  0.49102887     0.15700
H80         H  0.12701957  0.04489829  0.48348998     0.15700
H81         H  0.39238608  0.46199202  0.49463946     0.15700
H82         H  0.39305430  0.02853225  0.48313827     0.15700
H83         H  0.05448455  0.37786222  0.58063478     0.14000
H84         H  0.48768953  0.37256505  0.56229087     0.14000
H85         H  0.03674235  0.13139804  0.56541820     0.14000
H86         H  0.47382203  0.12883562  0.55372946     0.14000
H87         H  0.04407100  0.50560941  0.56996532     0.27200
H88         H  0.48211864  0.49857879  0.56080421     0.27200
O89         O  0.48491415  0.43431580  0.86043600    -0.79100
O90         O  0.48533541  0.43487884  0.12505290    -0.80600
O91         O  0.03779912  0.39911062  0.99812834    -0.77600
O92         O  0.42799117  0.39828212  0.00566296    -0.76000
O93         O  0.38736347  0.44015438  0.99984787    -0.77800
O94         O  0.07911159  0.44052168  0.99645224    -0.78700
O95         O  0.48472572  0.39623881  0.06545379    -0.80100
O96         O  0.48369326  0.39588504  0.92002350    -0.80300
Eu97       Eu  0.48330706  0.42649952  0.99320823     2.39200
O98         O  0.45026612  0.46167233  0.04060476    -0.87900
O99         O  0.01704344  0.46120883  0.94397462    -0.91500
C100        C  0.48456798  0.40289940  0.87687623     1.03200
C101        C  0.48530027  0.40337300  0.10847860     1.03000
C102        C  0.06904099  0.40902532  0.99991994     1.03000
C103        C  0.39692401  0.40875475  0.00677317     1.00800
H104        H  0.03099629  0.44792944  0.05978681     0.30600
O105        O  0.01675437  0.46221196  0.04086362    -1.00200
H106        H  0.43512665  0.44501201  0.92510000     0.30600
O107        O  0.44983588  0.46012292  0.94312243    -1.02800
O108        O  0.48799608  0.05567614  0.12728272    -0.80000
O109        O  0.48778071  0.05536292  0.85844194    -0.79600
O110        O  0.08025381  0.49856967  0.06557589    -0.78000
O111        O  0.38708840  0.49779044  0.06432880    -0.81300
O112        O  0.38953163  0.99516754  0.91704210    -0.79200
O113        O  0.08441699  0.99512922  0.92222856    -0.77800
O114        O  0.04014280  0.09137950  0.99946010    -0.79400
O115        O  0.43118686  0.09510566  0.00062348    -0.81300
O116        O  0.08138584  0.04982815  0.99794384    -0.78000
O117        O  0.39047408  0.05312060  0.99575412    -0.80700
O118        O  0.04260019  0.49986912  0.12498053    -0.76400
O119        O  0.04787360  0.99617132  0.86102254    -0.76500
O120        O  0.42825693  0.99585666  0.85854774    -0.76100
O121        O  0.42483941  0.49658238  0.12454257    -0.79600
O122        O  0.48878701  0.09412050  0.06774836    -0.79000
O123        O  0.48620443  0.09438426  0.91772841    -0.77400
Eu124      Eu  0.48433085  0.49556086  0.09107964     2.39800
Eu125      Eu  0.48677910  0.99566971  0.89428862     2.39600
Eu126      Eu  0.05056313  0.49585877  0.99229504     2.38400
Eu127      Eu  0.41668260  0.49528902  0.99122564     2.39900
Eu128      Eu  0.48589168  0.06542556  0.99278566     2.39800
O129        O  0.45249317  0.03113230  0.94299270    -0.91800
O130        O  0.01877914  0.02910640  0.04061947    -0.90700
C131        C  0.48898799  0.08705381  0.11096810     1.03400
C132        C  0.48715685  0.08694895  0.87449054     1.02100
C133        C  0.07337129  0.50039499  0.10859520     1.01500
C134        C  0.39411967  0.49814582  0.10755417     1.03500
C135        C  0.39736674  0.99500313  0.87414961     1.02400
C136        C  0.07837705  0.99583139  0.87883853     1.01300
C137        C  0.07114384  0.08126842  0.00098833     1.01300
C138        C  0.40008472  0.08477480  0.00081554     1.04000
H139        H  0.03560179  0.04466207  0.92716722     0.31300
O140        O  0.02072829  0.02963309  0.94448459    -1.03900
H141        H  0.43840544  0.04525543  0.05929882     0.33400
O142        O  0.45244837  0.03074880  0.04078579    -1.06500
N143        N  0.28439332  0.24627394  0.04327108    -0.35500
N144        N  0.23317424  0.19397851  0.03399118    -0.56100
N145        N  0.18066469  0.24622068  0.04147076    -0.35500
N146        N  0.23205366  0.29822925  0.05015808    -0.56100
C147        C  0.30213375  0.21935535  0.02595368     0.28100
C148        C  0.30144856  0.27535671  0.03208508     0.28100
C149        C  0.16358139  0.21919023  0.02321249     0.28100
C150        C  0.16300415  0.27502744  0.03064093     0.28100
C151        C  0.26042300  0.17352408  0.04077897     0.36700
C152        C  0.20577743  0.17363366  0.03936555     0.36700
C153        C  0.25942084  0.31800633  0.05941046     0.36700
C154        C  0.20460095  0.31771822  0.05956557     0.36700
C155        C  0.33075922  0.23134279  0.00366451    -0.20800
C156        C  0.33030973  0.26680595  0.00746278    -0.20800
C157        C  0.13458113  0.23069647  0.00087340    -0.20800
C158        C  0.13434793  0.26608494  0.00519646    -0.20800
C159        C  0.25037553  0.14005392  0.05114133    -0.21900
C160        C  0.21552725  0.14010845  0.05019831    -0.21900
C161        C  0.24945814  0.35003786  0.07615238    -0.21900
C162        C  0.21453509  0.34977038  0.07659103    -0.21900
C163        C  0.29382043  0.18421102  0.03193565    -0.17200
C164        C  0.29243528  0.30921117  0.04553780    -0.17200
C165        C  0.17160546  0.30892398  0.04473864    -0.17200
C166        C  0.17259404  0.18428528  0.02886157    -0.17200
H167        H  0.34993545  0.21611706  0.98643935     0.15700
H168        H  0.34917553  0.28428074  0.99377939     0.15700
H169        H  0.11565657  0.21520749  0.98319318     0.15700
H170        H  0.11520083  0.28315965  0.99110801     0.15700
H171        H  0.26643662  0.11777171  0.05719720     0.14000
H172        H  0.19928890  0.11785211  0.05540410     0.14000
H173        H  0.26558941  0.37184436  0.08475931     0.14000
H174        H  0.19835225  0.37139810  0.08547254     0.14000
H175        H  0.26386989  0.24461956  0.06554963     0.27200
H176        H  0.20120695  0.24462366  0.06404099     0.27200
C177        C  0.04184069  0.24768705  0.27364385     0.87600
C178        C  0.03681834  0.21575170  0.24271083    -0.52700
C179        C  0.50742123  0.21289323  0.22196530     0.10500
C180        C  0.48463454  0.24601261  0.22657229     0.21400
C181        C  0.03786533  0.27916112  0.24222450    -0.53400
C182        C  0.50760811  0.27818036  0.21725335     0.10600
C183        C  0.50710710  0.24897473  0.30429338    -0.52900
C184        C  0.47773395  0.24809238  0.27844830     0.11200
H185        H  0.05360160  0.19352603  0.24317062     0.15700
H186        H  0.46097335  0.24516119  0.20580267     0.01400
H187        H  0.05680898  0.29958495  0.24105026     0.16000
H188        H  0.50616264  0.24842261  0.34134364     0.15800
C189        C  0.20271126  0.49987666  0.21373455     0.87600
C190        C  0.20773256  0.46878705  0.24581526    -0.52700
C191        C  0.23774042  0.46812085  0.26957609     0.10500
C192        C  0.26035563  0.50057160  0.25983518     0.21400
C193        C  0.20945628  0.03216894  0.24705373    -0.53400
C194        C  0.24003870  0.03355426  0.26928386     0.10600
C195        C  0.23518955  0.49870326  0.18340455    -0.52900
C196        C  0.26551435  0.49956101  0.20739274     0.11200
H197        H  0.18998686  0.44739548  0.24728358     0.15700
H198        H  0.28461836  0.50114839  0.27928807     0.01400
H199        H  0.19086792  0.05286551  0.24947851     0.16000
H200        H  0.23439680  0.49682561  0.14628084     0.15800
C201        C  0.04411915  0.24512466  0.71420881     0.87600
C202        C  0.03778849  0.27742155  0.74387080    -0.52700
C203        C  0.50905559  0.27841676  0.76652074     0.10500
C204        C  0.48743877  0.24498986  0.75815483     0.21400
C205        C  0.04030806  0.21423715  0.74645484    -0.53400
C206        C  0.51084399  0.21286808  0.76639862     0.10600
C207        C  0.51168169  0.24597554  0.68155121    -0.52900
C208        C  0.48177464  0.24479124  0.70583493     0.11200
H209        H  0.05446703  0.29973516  0.74387317     0.15700
H210        H  0.46334283  0.24417414  0.77755562     0.01400
H211        H  0.05955840  0.19418932  0.74900568     0.16000
H212        H  0.51186259  0.24743016  0.64440809     0.15800
C213        C  0.20276047  0.50043176  0.77293496     0.87600
C214        C  0.21142217  0.03442350  0.74152268    -0.52700
C215        C  0.24069814  0.03428958  0.71644922     0.10500
C216        C  0.25912058  0.50149339  0.72529992     0.21400
C217        C  0.20710347  0.46935404  0.74104028    -0.53400
C218        C  0.23662215  0.46891999  0.71702529     0.10600
C219        C  0.23587685  0.50104806  0.80235365    -0.52900
C220        C  0.26543297  0.50094009  0.77737234     0.11200
H221        H  0.19452559  0.05657702  0.74179807     0.15700
H222        H  0.28295092  0.50124002  0.70527171     0.01400
H223        H  0.18902307  0.44809391  0.73977254     0.16000
H224        H  0.23624950  0.50208807  0.83951903     0.15800
C225        C  0.13345577  0.02451851  0.12871812     0.24700
C226        C  0.10412677  0.50350990  0.13931503    -0.23400
C227        C  0.10637062  0.48770901  0.18258740     0.19600
C228        C  0.13746536  0.48711994  0.20712406     0.24600
C229        C  0.16785577  0.50102481  0.18813787    -0.23400
C230        C  0.16400604  0.02424976  0.15399343     0.19500
F231        F  0.18903630  0.04649440  0.14166763    -0.13300
F232        F  0.13103663  0.04572296  0.09173721    -0.15700
F233        F  0.13707570  0.47393889  0.25019453    -0.15700
F234        F  0.07871840  0.47207949  0.20085486    -0.13300
C235        C  0.35903020  0.48085408  0.17726832     0.24700
C236        C  0.36365549  0.50143298  0.13799707    -0.23400
C237        C  0.33662776  0.02161733  0.12235331     0.19600
C238        C  0.30546254  0.02140826  0.14537696     0.24600
C239        C  0.29991249  0.50091185  0.18475485    -0.23400
C240        C  0.32760178  0.48075978  0.20056819     0.19500
F241        F  0.32387733  0.45970267  0.23738043    -0.13300
F242        F  0.38418073  0.45935916  0.19156191    -0.15700
F243        F  0.28039071  0.04276378  0.13040988    -0.18700
F244        F  0.33994039  0.04270640  0.08541896    -0.13300
C245        C  0.99957328  0.37727923  0.18560513     0.24700
C246        C  0.48680855  0.37213639  0.13919625    -0.23400
C247        C  0.47797087  0.33890314  0.12164609     0.19600
C248        C  0.48363707  0.30867351  0.14718650     0.24600
C249        C  0.49753937  0.31040579  0.19147556    -0.23400
C250        C  0.00540771  0.34692831  0.21147057     0.19500
F251        F  0.01850140  0.35032073  0.25445651    -0.13300
F252        F  0.00918232  0.40834901  0.20340015    -0.15700
F253        F  0.47719357  0.27764849  0.12721767    -0.15700
F254        F  0.46476003  0.33517833  0.07875655    -0.13300
C255        C  0.99381848  0.11918035  0.18544716     0.24700
C256        C  0.49031273  0.11810977  0.14252310    -0.23400
C257        C  0.48050266  0.15106382  0.12575587     0.19600
C258        C  0.48401612  0.18112914  0.15244186     0.24600
C259        C  0.49840596  0.17991810  0.19646874    -0.23400
C260        C  0.99874631  0.14978926  0.21159527     0.19500
F261        F  0.00548351  0.14681946  0.25714662    -0.13300
F262        F  0.99589304  0.08807353  0.20684173    -0.15700
F263        F  0.47461930  0.21170830  0.13382224    -0.15700
F264        F  0.46810196  0.15473832  0.08252436    -0.13300
C265        C  0.15337573  0.36312156  0.00529972     0.24700
C266        C  0.14636808  0.33667118  0.03681573    -0.23400
C267        C  0.11382632  0.33423864  0.05601612     0.19600
C268        C  0.08823152  0.35688971  0.04226221     0.24600
C269        C  0.09510584  0.38304562  0.01024933    -0.23400
C270        C  0.12805203  0.38633548  0.99256860     0.19500
F271        F  0.13566741  0.41157662  0.96223581    -0.13300
F272        F  0.18449660  0.36591364  0.98583222    -0.15700
F273        F  0.05700625  0.35391890  0.06133917    -0.15700
F274        F  0.10664940  0.30923762  0.08713870    -0.13300
C275        C  0.31471089  0.35882872  0.00058628     0.24700
C276        C  0.31766594  0.33699252  0.03872764    -0.23400
C277        C  0.34657667  0.33897002  0.06693734     0.19600
C278        C  0.37277384  0.36203943  0.05635089     0.24600
C279        C  0.37014235  0.38346532  0.01750765    -0.23400
C280        C  0.34059455  0.38214239  0.99041468     0.19500
F281        F  0.33726538  0.40272406  0.95317230    -0.13300
F282        F  0.28732551  0.35657320  0.97220918    -0.15700
F283        F  0.40015734  0.36413494  0.08466351    -0.15700
F284        F  0.34944947  0.31820173  0.10427956    -0.13300
C285        C  0.37605907  0.13463547  0.04467639     0.24700
C286        C  0.37335454  0.11060413  0.00847266    -0.23400
C287        C  0.34392220  0.11003947  0.98114334     0.19600
C288        C  0.31785877  0.13368976  0.98907729     0.24600
C289        C  0.32065830  0.15792236  0.02495443    -0.23400
C290        C  0.34990366  0.15823995  0.05275514     0.19500
F291        F  0.35299089  0.18142399  0.08770995    -0.13300
F292        F  0.40333997  0.13436698  0.07327107    -0.15700
F293        F  0.29018215  0.13345340  0.96111392    -0.15700
F294        F  0.34079015  0.08700929  0.94607054    -0.13300
C295        C  0.09339293  0.13151002  0.04357155     0.24700
C296        C  0.09675339  0.10762579  0.00757444    -0.23400
C297        C  0.12478061  0.10885681  0.97835352     0.19600
C298        C  0.14941659  0.13416534  0.98492497     0.24600
C299        C  0.14637345  0.15784582  0.02132837    -0.23400
C300        C  0.11812151  0.15666719  0.05034914     0.19500
F301        F  0.11467150  0.17979463  0.08521738    -0.13300
F302        F  0.06670090  0.12977310  0.07279443    -0.15700
F303        F  0.17600552  0.13590229  0.95561280    -0.15700
F304        F  0.12774546  0.08609615  0.94295117    -0.13300
C305        C  0.33776771  0.47143691  0.85492140     0.24700
C306        C  0.36778021  0.99323257  0.84200072    -0.23400
C307        C  0.36245088  0.01809002  0.80749130     0.19600
C308        C  0.33079151  0.02024170  0.78463188     0.24600
C309        C  0.30011705  0.49795160  0.79853481    -0.23400
C310        C  0.30596705  0.47378875  0.83361069     0.19500
F311        F  0.28086726  0.45207642  0.84727173    -0.13300
F312        F  0.34205678  0.44785516  0.88874264    -0.15700
F313        F  0.32590365  0.04534469  0.75277151    -0.15700
F314        F  0.38714358  0.04141904  0.79776980    -0.13300
C315        C  0.10670393  0.50713557  0.80344937     0.24700
C316        C  0.10971514  0.99632537  0.84938643    -0.23400
C317        C  0.14014195  0.98158363  0.86634998     0.19600
C318        C  0.17063159  0.98377892  0.84202668     0.24600
C319        C  0.16871697  0.49796234  0.79907147    -0.23400
C320        C  0.13756984  0.50934611  0.77926554     0.19500
F321        F  0.13649087  0.52176740  0.73581605    -0.13300
F322        F  0.07801978  0.52021424  0.78422093    -0.15700
F323        F  0.19763805  0.96589104  0.85863461    -0.15700
F324        F  0.14049500  0.96401016  0.90664599    -0.13300
C325        C  0.98309355  0.18015659  0.83542583     0.24700
C326        C  0.50087414  0.17985827  0.79100662    -0.23400
C327        C  0.50917933  0.14664671  0.77316838     0.19600
C328        C  0.50276587  0.11608827  0.79836758     0.24600
C329        C  0.48856291  0.11780622  0.84263823    -0.23400
C330        C  0.97683427  0.14954495  0.85986027     0.19500
F331        F  0.96004938  0.15210457  0.90029300    -0.13300
F332        F  0.97425053  0.21074285  0.85470414    -0.15700
F333        F  0.51146424  0.08504676  0.77983552    -0.15700
F334        F  0.52344773  0.14355512  0.73104831    -0.13300
C335        C  0.49818209  0.37421238  0.80020384     0.24700
C336        C  0.48617442  0.37182824  0.84546993    -0.23400
C337        C  0.97762276  0.33881022  0.86255423     0.19600
C338        C  0.98331463  0.30853285  0.83675004     0.24600
C339        C  0.49797373  0.31059880  0.79197786    -0.23400
C340        C  0.50388897  0.34412651  0.77383158     0.19500
F341        F  0.51572068  0.34798280  0.73049245    -0.13300
F342        F  0.50600865  0.40551289  0.78197396    -0.15700
F343        F  0.97735657  0.27746123  0.85650923    -0.15700
F344        F  0.96464760  0.33507861  0.90531459    -0.13300
C345        C  0.40941049  0.21863267  0.62529348     0.24700
C346        C  0.38289454  0.24105839  0.63863922    -0.23400
C347        C  0.38826765  0.26291803  0.67662987     0.19600
C348        C  0.42001508  0.26363762  0.69924079     0.24600
C349        C  0.44723256  0.24285965  0.68380626    -0.23400
C350        C  0.44114746  0.21973793  0.64727222     0.19500
F351        F  0.46593196  0.19787177  0.63292607    -0.13300
F352        F  0.40470221  0.19574178  0.59029990    -0.15700
F353        F  0.42455171  0.28603560  0.73471842    -0.15700
F354        F  0.36351288  0.28511288  0.69007938    -0.13300
C355        C  0.13928476  0.26168204  0.68451579     0.24700
C356        C  0.14261857  0.24437153  0.64242339    -0.23400
C357        C  0.11481685  0.22456306  0.62636501     0.19600
C358        C  0.08373237  0.22434574  0.64960058     0.24600
C359        C  0.07894361  0.24452967  0.68954220    -0.23400
C360        C  0.10832224  0.26085015  0.70850164     0.19500
F361        F  0.10783754  0.27524278  0.75099335    -0.13300
F362        F  0.16556920  0.28043425  0.70184560    -0.15700
F363        F  0.05858759  0.20367042  0.63304750    -0.15700
F364        F  0.11770820  0.20518630  0.58760648    -0.13300
C365        C  0.25076294  0.13042071  0.68753211     0.24700
C366        C  0.26151695  0.12915677  0.64170848    -0.23400
C367        C  0.27078245  0.09644987  0.62332913     0.19600
C368        C  0.26603409  0.06581675  0.64825864     0.24600
C369        C  0.25228001  0.06678222  0.69252490    -0.23400
C370        C  0.24698272  0.09971863  0.71289391     0.19500
F371        F  0.23765630  0.10225109  0.75752958    -0.13300
F372        F  0.24206397  0.16105913  0.70716380    -0.15700
F373        F  0.27333196  0.03523655  0.62777337    -0.15700
F374        F  0.28343165  0.09374424  0.58020162    -0.13300
C375        C  0.25834600  0.43849362  0.64701110     0.24700
C376        C  0.24780631  0.43680075  0.69254541    -0.23400
C377        C  0.24632192  0.40395249  0.71387843     0.19600
C378        C  0.25397936  0.37342229  0.68932451     0.24600
C379        C  0.26228355  0.37493805  0.64241197    -0.23400
C380        C  0.26547269  0.40832081  0.62227114     0.19500
F381        F  0.27432781  0.41227022  0.57763356    -0.13300
F382        F  0.25955117  0.46934129  0.62510221    -0.15700
F383        F  0.25227023  0.34250646  0.71124106    -0.15700
F384        F  0.23693022  0.40134037  0.75848788    -0.13300
C385        C  0.41983712  0.10407211  0.47569923     0.24700
C386        C  0.42295207  0.08692600  0.51788644    -0.23400
C387        C  0.39918732  0.09287954  0.55254978     0.19600
C388        C  0.37209520  0.11546954  0.54495792     0.24600
C389        C  0.36887105  0.13269987  0.50279965    -0.23400
C390        C  0.39292437  0.12694856  0.46827637     0.19500
F391        F  0.39008172  0.14321178  0.42731020    -0.13300
F392        F  0.44282663  0.09860181  0.44190647    -0.15700
F393        F  0.34991697  0.12175020  0.57942533    -0.15700
F394        F  0.40284171  0.07736893  0.59402532    -0.13300
C395        C  0.11167704  0.14879665  0.48749448     0.24700
C396        C  0.14286797  0.14672907  0.51089720    -0.23400
C397        C  0.14836921  0.12064044  0.54350134     0.19600
C398        C  0.12321987  0.09643291  0.55213608     0.24600
C399        C  0.09266378  0.09736192  0.52721877    -0.23400
C400        C  0.08700937  0.12359205  0.49473952     0.19500
F401        F  0.05828667  0.12382400  0.46873554    -0.13300
F402        F  0.10572021  0.17415023  0.45624817    -0.15700
F403        F  0.12919515  0.07115247  0.58346363    -0.15700
F404        F  0.17809403  0.11874486  0.56723761    -0.13300
C405        C  0.09737449  0.39386071  0.50027179     0.24700
C406        C  0.10246388  0.41798724  0.53567081    -0.23400
C407        C  0.13363525  0.41923375  0.55911515     0.19600
C408        C  0.15943957  0.39609498  0.54758418     0.24600
C409        C  0.15412543  0.37142663  0.51263059    -0.23400
C410        C  0.12296086  0.37061726  0.48903297     0.19500
F411        F  0.11740391  0.34749440  0.45476077    -0.13300
F412        F  0.06765599  0.39309050  0.47639157    -0.15700
F413        F  0.18893866  0.39676000  0.57188129    -0.15700
F414        F  0.13883733  0.44273605  0.59322923    -0.13300
C415        C  0.37421297  0.38296670  0.54741904     0.24700
C416        C  0.37802062  0.35853171  0.51204154    -0.23400
C417        C  0.40796275  0.35769558  0.48630032     0.19600
C418        C  0.43288763  0.38266486  0.49378773     0.24600
C419        C  0.42916934  0.40708470  0.52926030    -0.23400
C420        C  0.40005764  0.40652972  0.55678571     0.19500
F421        F  0.39625957  0.42957261  0.59169394    -0.13300
F422        F  0.34565290  0.38365955  0.57328391    -0.15700
F423        F  0.45992791  0.38402047  0.46518044    -0.15700
F424        F  0.41242508  0.33368383  0.45272130    -0.13300
C425        C  0.10955513  0.27206841  0.36489360     0.24700
C426        C  0.13889633  0.25424281  0.35045780    -0.23400
C427        C  0.13693791  0.23514677  0.30949759     0.19600
C428        C  0.10631689  0.23337478  0.28423706     0.24600
C429        C  0.07595331  0.24909199  0.30063276    -0.23400
C430        C  0.07898676  0.27001591  0.34026904     0.19500
F431        F  0.05256558  0.28951620  0.35510920    -0.13300
F432        F  0.11036976  0.29204885  0.40321331    -0.15700
F433        F  0.10732125  0.21744261  0.24276700    -0.15700
F434        F  0.16443981  0.21742636  0.29429287    -0.13300
C435        C  0.38344812  0.26539607  0.30571702     0.24700
C436        C  0.37895319  0.24502201  0.34531215    -0.23400
C437        C  0.40652135  0.22445555  0.36015283     0.19600
C438        C  0.43748286  0.22441638  0.33711191     0.24600
C439        C  0.44292608  0.24620054  0.29939907    -0.23400
C440        C  0.41531254  0.26635701  0.28334334     0.19500
F441        F  0.41967583  0.28847990  0.24775266    -0.13300
F442        F  0.35790496  0.28604768  0.29052271    -0.15700
F443        F  0.46239069  0.20291479  0.35222465    -0.15700
F444        F  0.40399306  0.20487984  0.39848641    -0.13300
C445        C  0.27014085  0.40810336  0.36515515     0.24700
C446        C  0.26104744  0.37470444  0.34869439    -0.23400
C447        C  0.24763378  0.37235300  0.30397867     0.19600
C448        C  0.24139333  0.40239780  0.27792468     0.24600
C449        C  0.24829333  0.43595817  0.29570279    -0.23400
C450        C  0.26340370  0.43808588  0.33937560     0.19500
F451        F  0.26982892  0.46927606  0.35877400    -0.13300
F452        F  0.28500229  0.41213079  0.40702381    -0.15700
F453        F  0.22807206  0.39842422  0.23518631    -0.15700
F454        F  0.23923389  0.34105129  0.28585481    -0.13300
C455        C  0.26637652  0.09418116  0.36713988     0.24700
C456        C  0.25886621  0.12750306  0.34916154    -0.23400
C457        C  0.24986648  0.12953414  0.30245757     0.19600
C458        C  0.24525784  0.09916603  0.27602826     0.24600
C459        C  0.25044331  0.06586178  0.29514884    -0.23400
C460        C  0.26251266  0.06408918  0.34039290     0.19500
F461        F  0.26876209  0.03304297  0.36001481    -0.13300
F462        F  0.27694125  0.09027565  0.41128456    -0.15700
F463        F  0.23518574  0.10237973  0.23163214    -0.15700
F464        F  0.24427594  0.16079446  0.28263798    -0.13300
O465        O  0.26094330  0.69073440  0.35907264    -0.79100
O466        O  0.25920629  0.69021229  0.62352149    -0.80600
O467        O  0.31363424  0.65126093  0.49830169    -0.77600
O468        O  0.20310551  0.65692500  0.49644086    -0.76000
O469        O  0.16390742  0.70049469  0.49469788    -0.77800
O470        O  0.35619832  0.69134637  0.49400948    -0.78700
O471        O  0.25772224  0.65135727  0.56407203    -0.80100
O472        O  0.25949416  0.65201372  0.41832538    -0.80300
Eu473      Eu  0.25960210  0.68240770  0.49139835     2.39200
O474        O  0.22739814  0.71839566  0.53911180    -0.87900
O475        O  0.29454208  0.71495266  0.44253594    -0.91500
C476        C  0.26033402  0.65925480  0.37528429     1.03200
C477        C  0.25811528  0.65868774  0.60721830     1.03000
C478        C  0.34512300  0.66022381  0.49865011     1.03000
C479        C  0.17249520  0.66846558  0.49798133     1.00800
H480        H  0.30778488  0.70048356  0.55827852     0.30600
O481        O  0.29424571  0.71565497  0.53988603    -1.00200
H482        H  0.21160949  0.70381742  0.42489078     0.30600
O483        O  0.22689535  0.71811039  0.44291289    -1.02800
O484        O  0.26054700  0.81168038  0.62414788    -0.80000
O485        O  0.26328316  0.81132773  0.35910621    -0.79600
O486        O  0.35798992  0.74533867  0.56545015    -0.78000
O487        O  0.16478581  0.75213158  0.56326146    -0.81300
O488        O  0.16578854  0.75547190  0.41913435    -0.79200
O489        O  0.35867812  0.74781506  0.41780291    -0.77800
O490        O  0.32145227  0.84604048  0.50016762    -0.79400
O491        O  0.21337973  0.85287606  0.49697414    -0.81300
O492        O  0.36073403  0.80267541  0.49671470    -0.78000
O493        O  0.17058972  0.81297193  0.49485362    -0.80700
O494        O  0.32055043  0.74761208  0.62530692    -0.76400
O495        O  0.32076345  0.75093246  0.35797417    -0.76500
O496        O  0.20225685  0.75334060  0.35862253    -0.76100
O497        O  0.20234707  0.74810006  0.62324505    -0.79600
O498        O  0.26450252  0.85020553  0.56500186    -0.79000
O499        O  0.26659714  0.84949422  0.41908805    -0.77400
Eu500      Eu  0.26178246  0.75083758  0.59013766     2.39800
Eu501      Eu  0.26185781  0.75126865  0.39323120     2.39600
Eu502      Eu  0.32936302  0.74823420  0.49139004     2.38400
Eu503      Eu  0.19545258  0.75470869  0.49143230     2.39900
Eu504      Eu  0.26557212  0.81958332  0.49246699     2.39800
O505        O  0.22992299  0.78772418  0.44296194    -0.91800
O506        O  0.29747402  0.78355419  0.54078523    -0.90700
C507        C  0.26185547  0.84317061  0.60788063     1.03400
C508        C  0.26525757  0.84261761  0.37587449     1.02100
C509        C  0.35106731  0.74510610  0.60856300     1.01500
C510        C  0.17164805  0.74861865  0.60618752     1.03500
C511        C  0.17179155  0.75501418  0.37596339     1.02400
C512        C  0.35154214  0.74903135  0.37462562     1.01300
C513        C  0.35209438  0.83463637  0.50111164     1.01300
C514        C  0.18190953  0.84425067  0.49771382     1.04000
H515        H  0.31266149  0.79880736  0.42541584     0.31300
O516        O  0.29750369  0.78440884  0.44311959    -1.03900
H517        H  0.21597407  0.80200694  0.55896413     0.33400
O518        O  0.23005285  0.78714068  0.54063877    -1.06500
N519        N  0.06376304  0.00573545  0.53497883    -0.35500
N520        N  0.51591971  0.94931610  0.53695532    -0.56100
N521        N  0.46188514  0.99946050  0.53439789    -0.35500
N522        N  0.50913605  0.55321052  0.53946591    -0.56100
C523        C  0.08343431  0.97914583  0.52105272     0.28100
C524        C  0.07894603  0.53417816  0.52862129     0.28100
C525        C  0.44504536  0.97007948  0.52339529     0.28100
C526        C  0.44014598  0.52567151  0.53070886     0.28100
C527        C  0.04480414  0.93146695  0.54183130     0.36700
C528        C  0.48963153  0.92780207  0.54458377     0.36700
C529        C  0.03528645  0.57677159  0.54884510     0.36700
C530        C  0.48136603  0.57160385  0.55051713     0.36700
C531        C  0.11173029  0.99166046  0.49841163    -0.20800
C532        C  0.10742138  0.52457801  0.50397184    -0.20800
C533        C  0.41483556  0.97820501  0.50122979    -0.20800
C534        C  0.41008437  0.51442237  0.51057432    -0.20800
C535        C  0.03744590  0.89764962  0.55412869    -0.21900
C536        C  0.50136856  0.89520892  0.55669323    -0.21900
C537        C  0.02345288  0.60933266  0.56082639    -0.21900
C538        C  0.49050300  0.60467848  0.56455242    -0.21900
C539        C  0.07713482  0.94400005  0.53016635    -0.17200
C540        C  0.06875245  0.56855595  0.53662295    -0.17200
C541        C  0.44823941  0.56050358  0.54011546    -0.17200
C542        C  0.45569268  0.93616716  0.53411483    -0.17200
H543        H  0.13226176  0.97684155  0.48358074     0.15700
H544        H  0.12486946  0.54131538  0.48596057     0.15700
H545        H  0.39575927  0.96044994  0.48828421     0.15700
H546        H  0.38910911  0.53010211  0.49849891     0.15700
H547        H  0.05521134  0.87667656  0.55969616     0.14000
H548        H  0.48640626  0.87224910  0.56327134     0.14000
H549        H  0.03819736  0.63270899  0.56596116     0.14000
H550        H  0.47372347  0.62576515  0.57369101     0.14000
H551        H  0.04314077  0.00419036  0.55706371     0.27200
H552        H  0.48327829  0.00125269  0.55541055     0.27200
O553        O  0.48718464  0.93478952  0.86017779    -0.79100
O554        O  0.48696405  0.93608460  0.12649152    -0.80600
O555        O  0.04004660  0.89693659  0.00108183    -0.77600
O556        O  0.42937328  0.89946953  0.00171578    -0.76000
O557        O  0.38901930  0.94175390  0.99818229    -0.77800
O558        O  0.08124677  0.93859179  0.00020809    -0.78700
O559        O  0.48636787  0.89766982  0.06669013    -0.80100
O560        O  0.48470555  0.89655717  0.91982016    -0.80300
Eu561      Eu  0.48485383  0.92737929  0.99318757     2.39200
O562        O  0.45152006  0.96241651  0.04065074    -0.87900
O563        O  0.02112046  0.95952194  0.94340983    -0.91500
C564        C  0.48604745  0.90332948  0.87658646     1.03200
C565        C  0.48708073  0.90465864  0.10988363     1.03000
C566        C  0.07106975  0.90710819  0.00403237     1.03000
C567        C  0.39837898  0.91005617  0.00301523     1.00800
H568        H  0.03300382  0.94701739  0.06038218     0.30600
O569        O  0.01868713  0.96114266  0.04135756    -1.00200
H570        H  0.43719748  0.94655281  0.92533992     0.30600
O571        O  0.45190007  0.96157300  0.94344108    -1.02800
O572        O  0.48531164  0.55582124  0.12607221    -0.80000
O573        O  0.48757626  0.55572225  0.86031079    -0.79600
O574        O  0.08321091  0.99871246  0.06660109    -0.78000
O575        O  0.38818226  0.99808319  0.06337487    -0.81300
O576        O  0.38802095  0.49446034  0.91668811    -0.79200
O577        O  0.08117811  0.49427519  0.92049200    -0.77800
O578        O  0.04005960  0.59269283  0.00154453    -0.79400
O579        O  0.42853811  0.59253092  0.99858490    -0.81300
O580        O  0.08048622  0.55042242  0.99837116    -0.78000
O581        O  0.38756641  0.55080280  0.99348101    -0.80700
O582        O  0.04462350  0.99857953  0.12515054    -0.76400
O583        O  0.04424713  0.49453865  0.85969673    -0.76500
O584        O  0.42594052  0.49607541  0.85738173    -0.76100
O585        O  0.42549581  0.99658726  0.12399054    -0.79600
O586        O  0.48521098  0.59382056  0.06615094    -0.79000
O587        O  0.48528668  0.59448643  0.91974911    -0.77400
Eu588      Eu  0.48553772  0.99607590  0.09137018     2.39800
Eu589      Eu  0.48433859  0.49496287  0.89400427     2.39600
Eu590      Eu  0.05308563  0.99448810  0.99368282     2.38400
Eu591      Eu  0.41868093  0.99692433  0.99126326     2.39900
Eu592      Eu  0.48340769  0.56367679  0.99249084     2.39800
O593        O  0.44984892  0.52988608  0.94270910    -0.91800
O594        O  0.01711547  0.53084852  0.03920404    -0.90700
C595        C  0.48549801  0.58715971  0.10940667     1.03400
C596        C  0.48738702  0.58729548  0.87668683     1.02100
C597        C  0.07560974  0.00004107  0.10944902     1.01500
C598        C  0.39483440  0.99792848  0.10663413     1.03500
C599        C  0.39520460  0.49497109  0.87359804     1.02400
C600        C  0.07477665  0.49371637  0.87720379     1.01300
C601        C  0.07095016  0.58193735  0.00368780     1.01300
C602        C  0.39746529  0.58230181  0.99859189     1.04000
H603        H  0.03408966  0.54574648  0.92495710     0.31300
O604        O  0.01891805  0.53114968  0.94244909    -1.03900
H605        H  0.43625043  0.54398195  0.05892834     0.33400
O606        O  0.45031659  0.52933147  0.04066840    -1.06500
N607        N  0.28642849  0.74490761  0.04457840    -0.35500
N608        N  0.23446335  0.69217292  0.04966026    -0.56100
N609        N  0.18220094  0.74456656  0.05261540    -0.35500
N610        N  0.23439146  0.79730832  0.04515257    -0.56100
C611        C  0.30390687  0.71648015  0.03153271     0.28100
C612        C  0.30383466  0.77268837  0.02919273     0.28100
C613        C  0.16376304  0.71629282  0.04110605     0.28100
C614        C  0.16362744  0.77248854  0.04045566     0.28100
C615        C  0.26205888  0.67186827  0.05429027     0.36700
C616        C  0.20739998  0.67176167  0.05757354     0.36700
C617        C  0.26195296  0.81782994  0.04934910     0.36700
C618        C  0.20732836  0.81753217  0.05401888     0.36700
C619        C  0.33296745  0.72628654  0.00828231    -0.20800
C620        C  0.33284425  0.76179736  0.00663580    -0.20800
C621        C  0.13289991  0.72641726  0.02225706    -0.20800
C622        C  0.13276452  0.76193075  0.02202375    -0.20800
C623        C  0.25260969  0.63848565  0.06613487    -0.21900
C624        C  0.21781607  0.63842413  0.06825619    -0.21900
C625        C  0.25240290  0.85113955  0.06167188    -0.21900
C626        C  0.21764379  0.85099873  0.06430072    -0.21900
C627        C  0.29487156  0.68193793  0.04119017    -0.17200
C628        C  0.29496854  0.80763261  0.03687120    -0.17200
C629        C  0.17353164  0.80726767  0.04644460    -0.17200
C630        C  0.17372914  0.68160579  0.04811215    -0.17200
H631        H  0.35219779  0.70960091  0.99372471     0.15700
H632        H  0.35194793  0.77775488  0.99055662     0.15700
H633        H  0.11261268  0.70998800  0.00962314     0.15700
H634        H  0.11238001  0.77809329  0.00923213     0.15700
H635        H  0.26895986  0.61620298  0.07061064     0.14000
H636        H  0.20194273  0.61608118  0.07470125     0.14000
H637        H  0.26865048  0.87346772  0.06664951     0.14000
H638        H  0.20170191  0.87317369  0.07147210     0.14000
H639        H  0.26573081  0.74539541  0.06658489     0.27200
H640        H  0.20485084  0.74491633  0.07116250     0.27200
C641        C  0.04218472  0.74697067  0.27343917     0.87600
C642        C  0.03812337  0.71479942  0.24295527    -0.52700
C643        C  0.50775752  0.71338238  0.21763038     0.10500
C644        C  0.48646330  0.74702194  0.22574635     0.21400
C645        C  0.03865452  0.77762708  0.24113846    -0.53400
C646        C  0.51013006  0.77875518  0.21723782     0.10600
C647        C  0.51158645  0.74613416  0.30224597    -0.52900
C648        C  0.48133361  0.74749833  0.27808064     0.11200
H649        H  0.05651764  0.69389286  0.24285994     0.15700
H650        H  0.46217487  0.74767697  0.20628793     0.01400
H651        H  0.05776222  0.79788623  0.23947352     0.16000
H652        H  0.51239321  0.74533618  0.33944564     0.15800
C653        C  0.20382047  0.00032243  0.21658544     0.87600
C654        C  0.20987666  0.96892595  0.24795917    -0.52700
C655        C  0.24046833  0.96833569  0.27025709     0.10500
C656        C  0.26254617  0.00091292  0.26026078     0.21400
C657        C  0.20772949  0.53190291  0.24395761    -0.53400
C658        C  0.23792691  0.53349260  0.26715033     0.10600
C659        C  0.23548148  0.99953888  0.18488113    -0.52900
C660        C  0.26637710  0.99996961  0.20756112     0.11200
H661        H  0.19308196  0.94679948  0.24917888     0.15700
H662        H  0.28723022  0.00145085  0.27878379     0.01400
H663        H  0.18906725  0.55257647  0.24529150     0.16000
H664        H  0.23354534  0.99809271  0.14777095     0.15800
C665        C  0.04295439  0.74582305  0.70925962     0.87600
C666        C  0.03726369  0.77879938  0.73782079    -0.52700
C667        C  0.50880985  0.77803327  0.76553466     0.10500
C668        C  0.48734901  0.74429234  0.75835349     0.21400
C669        C  0.03997107  0.71578449  0.74319240    -0.53400
C670        C  0.51137699  0.71249532  0.76584063     0.10600
C671        C  0.50951439  0.74536161  0.68062252    -0.52900
C672        C  0.48035384  0.74376300  0.70622512     0.11200
H673        H  0.05427587  0.80088069  0.73682795     0.15700
H674        H  0.46378231  0.74334956  0.77887519     0.01400
H675        H  0.05945266  0.69599937  0.74593699     0.16000
H676        H  0.50846614  0.74759718  0.64360781     0.15800
C677        C  0.20652889  0.00312108  0.77315346     0.87600
C678        C  0.20679754  0.53256909  0.74237746    -0.52700
C679        C  0.23635796  0.53409843  0.71792634     0.10500
C680        C  0.26221125  0.00085429  0.72387496     0.21400
C681        C  0.20905449  0.97138952  0.74192287    -0.53400
C682        C  0.23818630  0.96893951  0.71704000     0.10600
C683        C  0.24013643  0.00279829  0.80155603    -0.52900
C684        C  0.26921748  0.00111313  0.77574783     0.11200
H685        H  0.18850125  0.55352770  0.74207760     0.15700
H686        H  0.28587043  0.99973630  0.70348507     0.01400
H687        H  0.18947361  0.95158573  0.74105115     0.16000
H688        H  0.24123906  0.00447062  0.83867225     0.15800
C689        C  0.13329271  0.52075975  0.12293445     0.24700
C690        C  0.10563841  0.00352351  0.14126923    -0.23400
C691        C  0.10861082  0.98412191  0.18171121     0.19600
C692        C  0.13933759  0.98354753  0.20692278     0.24600
C693        C  0.16870049  0.00171184  0.19159918    -0.23400
C694        C  0.16422140  0.52002681  0.14709684     0.19500
F695        F  0.19042314  0.53890829  0.13041365    -0.13300
F696        F  0.13191616  0.53889522  0.08310377    -0.15700
F697        F  0.13911049  0.96651631  0.24748872    -0.15700
F698        F  0.08197520  0.96491173  0.19643978    -0.13300
C699        C  0.35890788  0.97874980  0.17478974     0.24700
C700        C  0.36392031  0.00029144  0.13650378    -0.23400
C701        C  0.33656788  0.52301745  0.12399523     0.19600
C702        C  0.30535688  0.52281990  0.14697089     0.24600
C703        C  0.30021661  0.99989586  0.18351157    -0.23400
C704        C  0.32749145  0.97866840  0.19818255     0.19500
F705        F  0.32324778  0.95646056  0.23370349    -0.13300
F706        F  0.38357696  0.95622620  0.18777863    -0.15700
F707        F  0.28052358  0.54464772  0.13246966    -0.18700
F708        F  0.34021893  0.54437022  0.08737166    -0.13300
C709        C  0.00299226  0.87454033  0.18311384     0.24700
C710        C  0.48895480  0.87343456  0.14079898    -0.23400
C711        C  0.48042643  0.84020836  0.12315854     0.19600
C712        C  0.48593312  0.81002322  0.14863544     0.24600
C713        C  0.50035630  0.81149899  0.19251451    -0.23400
C714        C  0.00747728  0.84428900  0.20926505     0.19500
F715        F  0.01934642  0.84754914  0.25290867    -0.13300
F716        F  0.01240424  0.90543928  0.20153769    -0.15700
F717        F  0.47900422  0.77908615  0.12879451    -0.15700
F718        F  0.46785879  0.83632349  0.08002550    -0.13300
C719        C  0.00081274  0.61799845  0.18156213     0.24700
C720        C  0.48644327  0.61865116  0.14040674    -0.23400
C721        C  0.47837823  0.65182418  0.12240102     0.19600
C722        C  0.48338067  0.68221742  0.14817174     0.24600
C723        C  0.49622674  0.68088133  0.19301437    -0.23400
C724        C  0.00626722  0.64790808  0.20838382     0.19500
F725        F  0.01856762  0.64385495  0.25162564    -0.13300
F726        F  0.00971410  0.58669874  0.19897638    -0.15700
F727        F  0.47742191  0.71309594  0.12788431    -0.15700
F728        F  0.46646040  0.65534051  0.07886321    -0.13300
C729        C  0.14904360  0.85217589  0.99541723     0.24700
C730        C  0.14805671  0.83431483  0.03725468    -0.23400
C731        C  0.12150800  0.84028908  0.06814571     0.19600
C732        C  0.09587122  0.86375764  0.05688250     0.24600
C733        C  0.09678486  0.88128782  0.01472043    -0.23400
C734        C  0.12361046  0.87575634  0.98435164     0.19500
F735        F  0.12469391  0.89269306  0.94364232    -0.13300
F736        F  0.17426986  0.84606097  0.96492875    -0.15700
F737        F  0.07071317  0.87010731  0.08745532    -0.15700
F738        F  0.12049660  0.82333447  0.10887863    -0.13300
C739        C  0.31590313  0.86034252  0.99557645     0.24700
C740        C  0.32107641  0.83463894  0.02893861    -0.23400
C741        C  0.35161444  0.83415086  0.05402068     0.19600
C742        C  0.37679756  0.85863503  0.04534379     0.24600
C743        C  0.37174847  0.88420776  0.01180653    -0.23400
C744        C  0.34070127  0.88544843  0.98796764     0.19500
F745        F  0.33451198  0.91067600  0.95685456    -0.13300
F746        F  0.28701449  0.86083017  0.96993943    -0.15700
F747        F  0.40551073  0.85829596  0.07113524    -0.15700
F748        F  0.35701932  0.80983741  0.08684011    -0.13300
C749        C  0.37359760  0.62709709  0.04962533     0.24700
C750        C  0.37146043  0.60802649  0.00858846    -0.23400
C751        C  0.34332309  0.61197217  0.97944615     0.19600
C752        C  0.31784400  0.63551288  0.99074531     0.24600
C753        C  0.32013801  0.65478654  0.03159591    -0.23400
C754        C  0.34797143  0.65034520  0.06113995     0.19500
F755        F  0.35030823  0.66869821  0.10085469    -0.13300
F756        F  0.40002968  0.62240834  0.07907880    -0.15700
F757        F  0.29137584  0.64027355  0.96140270    -0.15700
F758        F  0.34105436  0.59371031  0.93964900    -0.13300
C759        C  0.09409359  0.62765530  0.05470689     0.24700
C760        C  0.09729707  0.60710206  0.01512138    -0.23400
C761        C  0.12674346  0.60913970  0.98852664     0.19600
C762        C  0.15198890  0.63296360  0.99994068     0.24600
C763        C  0.14846556  0.65417034  0.03888804    -0.23400
C764        C  0.11968231  0.65100005  0.06667943     0.19500
F765        F  0.11629150  0.67084878  0.10492646    -0.13300
F766        F  0.06668145  0.62431866  0.08239194    -0.15700
F767        F  0.17951042  0.63601944  0.97242305    -0.15700
F768        F  0.13062660  0.58863083  0.95097819    -0.13300
C769        C  0.34177509  0.96912590  0.85065225     0.24700
C770        C  0.36481938  0.49331883  0.84250223    -0.23400
C771        C  0.35976146  0.51617454  0.80549514     0.19600
C772        C  0.32771148  0.51833217  0.78354109     0.24600
C773        C  0.30394733  0.99772872  0.79633954    -0.23400
C774        C  0.31032075  0.97136765  0.82827561     0.19500
F775        F  0.28597263  0.94754471  0.83767543    -0.13300
F776        F  0.34685257  0.94334397  0.88133637    -0.15700
F777        F  0.32323204  0.54161628  0.74923782    -0.15700
F778        F  0.38505914  0.53775054  0.79230240    -0.13300
C779        C  0.11091631  0.01280281  0.80645874     0.24700
C780        C  0.10570131  0.49233812  0.84734997    -0.23400
C781        C  0.13597416  0.47769390  0.86476498     0.19600
C782        C  0.16654069  0.47961178  0.84073221     0.24600
C783        C  0.17282497  0.00250908  0.80061236    -0.23400
C784        C  0.14177799  0.01550327  0.78217275     0.19500
F785        F  0.14061854  0.02985472  0.73977533    -0.13300
F786        F  0.08235356  0.02686177  0.78811570    -0.15700
F787        F  0.19356402  0.46201769  0.85790184    -0.15700
F788        F  0.13614429  0.46096568  0.90549466    -0.13300
C789        C  0.98130742  0.68240347  0.83269739     0.24700
C790        C  0.50270647  0.67978370  0.79217876    -0.23400
C791        C  0.51164415  0.64633886  0.77564740     0.19600
C792        C  0.50563930  0.61619893  0.80184909     0.24600
C793        C  0.49064250  0.61836578  0.84550680    -0.23400
C794        C  0.97555998  0.65208474  0.85810770     0.19500
F795        F  0.95784742  0.65486620  0.89779603    -0.13300
F796        F  0.96938455  0.71277190  0.84934557    -0.15700
F797        F  0.51578849  0.58505977  0.78507603    -0.15700
F798        F  0.52584912  0.64247882  0.73362641    -0.13300
C799        C  0.49624091  0.87392269  0.79857125     0.24700
C800        C  0.48720735  0.87185092  0.84525319    -0.23400
C801        C  0.97919406  0.83887084  0.85978897     0.19600
C802        C  0.98533040  0.80902548  0.83354244     0.24600
C803        C  0.49809484  0.81014926  0.79166446    -0.23400
C804        C  0.50120048  0.84358070  0.77211804     0.19500
F805        F  0.50914175  0.84697466  0.72708773    -0.13300
F806        F  0.50110903  0.90520613  0.77853825    -0.15700
F807        F  0.98126555  0.77768997  0.85341066    -0.15700
F808        F  0.96602746  0.83461771  0.90235316    -0.13300
C809        C  0.40845723  0.71985391  0.62412039     0.24700
C810        C  0.38145796  0.74106626  0.63908717    -0.23400
C811        C  0.38634042  0.76112846  0.67899774     0.19600
C812        C  0.41819694  0.76165600  0.70149754     0.24600
C813        C  0.44556894  0.74162115  0.68500725    -0.23400
C814        C  0.43980144  0.71987782  0.64693059     0.19500
F815        F  0.46467908  0.69858627  0.63138660    -0.13300
F816        F  0.40479737  0.69946142  0.58631405    -0.15700
F817        F  0.42280823  0.78344344  0.73762515    -0.15700
F818        F  0.36111554  0.78196376  0.69444361    -0.13300
C819        C  0.13861202  0.75917645  0.67991875     0.24700
C820        C  0.14102032  0.74435668  0.63603610    -0.23400
C821        C  0.11223493  0.72689833  0.61833725     0.19600
C822        C  0.08122896  0.72684084  0.64176389     0.24600
C823        C  0.07743769  0.74491523  0.68365255    -0.23400
C824        C  0.10754343  0.75885659  0.70379631     0.19500
F825        F  0.10732500  0.77197876  0.74703103    -0.13300
F826        F  0.16601617  0.77486693  0.69931516    -0.15700
F827        F  0.05542578  0.70786184  0.62364403    -0.15700
F828        F  0.11415777  0.70924130  0.57803909    -0.13300
C829        C  0.24318628  0.63001631  0.68325343     0.24700
C830        C  0.25691994  0.62789732  0.63889373    -0.23400
C831        C  0.26793777  0.59493385  0.62343249     0.19600
C832        C  0.26296848  0.56494541  0.64982538     0.24600
C833        C  0.24635171  0.56657922  0.69229967    -0.23400
C834        C  0.23815926  0.59990172  0.70962553     0.19500
F835        F  0.22566046  0.60357849  0.75266153    -0.13300
F836        F  0.23357554  0.66108382  0.70077979    -0.15700
F837        F  0.27370304  0.53423155  0.63277213    -0.15700
F838        F  0.28354043  0.59144289  0.58225668    -0.13300
C839        C  0.26212055  0.93779393  0.64807055     0.24700
C840        C  0.24675150  0.93615334  0.69117136    -0.23400
C841        C  0.23847482  0.90287875  0.70854849     0.19600
C842        C  0.24420189  0.87256943  0.68252551     0.24600
C843        C  0.25896674  0.87442733  0.63876660    -0.23400
C844        C  0.26822619  0.90771023  0.62235815     0.19500
F845        F  0.28263298  0.91168516  0.58049843    -0.13300
F846        F  0.26985406  0.96881400  0.62936775    -0.15700
F847        F  0.23401586  0.84158957  0.69955673    -0.15700
F848        F  0.22491594  0.89941693  0.75099961    -0.13300
C849        C  0.42038050  0.60122764  0.48631307     0.24700
C850        C  0.42219272  0.58681702  0.53038855    -0.23400
C851        C  0.39761625  0.59516181  0.56314506     0.19600
C852        C  0.37192922  0.61870349  0.55223600     0.24600
C853        C  0.37037577  0.63348571  0.50827292    -0.23400
C854        C  0.39460787  0.62454454  0.47532376     0.19500
F855        F  0.39288850  0.63784551  0.43238620    -0.13300
F856        F  0.44310751  0.59184330  0.45370629    -0.15700
F857        F  0.34915411  0.62789708  0.58485853    -0.15700
F858        F  0.39849092  0.58037990  0.60534406    -0.13300
C859        C  0.11510732  0.64361584  0.48208512     0.24700
C860        C  0.14562610  0.64333558  0.50718422    -0.23400
C861        C  0.15011347  0.61957115  0.54305819     0.19600
C862        C  0.12450796  0.59616334  0.55359586     0.24600
C863        C  0.09389132  0.59633036  0.52867489    -0.23400
C864        C  0.08934105  0.62011922  0.49271468     0.19500
F865        F  0.06068794  0.61941492  0.46661559    -0.13300
F866        F  0.11093186  0.66554040  0.44614011    -0.15700
F867        F  0.13000249  0.57242395  0.58712636    -0.15700
F868        F  0.17921055  0.61932446  0.56831362    -0.13300
C869        C  0.10283252  0.89718503  0.48318951     0.24700
C870        C  0.10466031  0.91895528  0.52172777    -0.23400
C871        C  0.13334854  0.91805204  0.55051089     0.19600
C872        C  0.15959007  0.89473885  0.54142020     0.24600
C873        C  0.15691714  0.87182374  0.50393005    -0.23400
C874        C  0.12874899  0.87362097  0.47448184     0.19500
F875        F  0.12662852  0.85277848  0.43699451    -0.13300
F876        F  0.07592125  0.89894321  0.45398819    -0.15700
F877        F  0.18685606  0.89356507  0.57013703    -0.15700
F878        F  0.13554837  0.93930609  0.58765298    -0.13300
C879        C  0.37725585  0.88140473  0.54866418     0.24700
C880        C  0.37906138  0.85987294  0.50982016    -0.23400
C881        C  0.40679931  0.86242410  0.48010720     0.19600
C882        C  0.43232932  0.88668622  0.48885402     0.24600
C883        C  0.43073702  0.90794984  0.52796991    -0.23400
C884        C  0.40306239  0.90522366  0.55783240     0.19500
F885        F  0.40063924  0.92634357  0.59501831    -0.13300
F886        F  0.35061515  0.87908821  0.57785704    -0.15700
F887        F  0.45775026  0.89072917  0.45809002    -0.15700
F888        F  0.40830213  0.84256648  0.44163819    -0.13300
C889        C  0.10946687  0.76792710  0.36640495     0.24700
C890        C  0.14017995  0.75605797  0.34671032    -0.23400
C891        C  0.13883668  0.74372890  0.30130497     0.19600
C892        C  0.10744273  0.74075018  0.27795515     0.24600
C893        C  0.07631035  0.74932097  0.29968191    -0.23400
C894        C  0.07853144  0.76548154  0.34301010     0.19500
F895        F  0.05131803  0.78115844  0.36233563    -0.13300
F896        F  0.10904687  0.78275003  0.40873858    -0.15700
F897        F  0.10774798  0.73026459  0.23346853    -0.15700
F898        F  0.16770766  0.73417658  0.27952659    -0.13300
C899        C  0.38933608  0.77146402  0.30981005     0.24700
C900        C  0.38201725  0.74681462  0.34400584    -0.23400
C901        C  0.40721496  0.72214057  0.35470788     0.19600
C902        C  0.43899423  0.72246032  0.33333907     0.24600
C903        C  0.44680729  0.74736119  0.30004192    -0.23400
C904        C  0.42127566  0.77142836  0.28761900     0.19500
F905        F  0.42779445  0.79594548  0.25554417    -0.13300
F906        F  0.36657007  0.79678705  0.29988460    -0.15700
F907        F  0.46215061  0.69796660  0.34506019    -0.15700
F908        F  0.40120956  0.69780896  0.38710012    -0.13300
C909        C  0.27363836  0.90688105  0.36273131     0.24700
C910        C  0.26475782  0.87380511  0.34497439    -0.23400
C911        C  0.25239428  0.87216697  0.29961457     0.19600
C912        C  0.24627850  0.90271522  0.27456618     0.24600
C913        C  0.25232978  0.93584473  0.29410745    -0.23400
C914        C  0.26739844  0.93723383  0.33773882     0.19500
F915        F  0.27430886  0.96806954  0.35780822    -0.13300
F916        F  0.28746026  0.91029288  0.40532128    -0.15700
F917        F  0.23380379  0.89977445  0.23120632    -0.15700
F918        F  0.24469397  0.84117855  0.28001749    -0.13300
C919        C  0.26970799  0.59533205  0.36063869     0.24700
C920        C  0.25983260  0.62827033  0.34380678    -0.23400
C921        C  0.24693957  0.62996333  0.29876363     0.19600
C922        C  0.24131620  0.59943986  0.27307561     0.24600
C923        C  0.24862850  0.56630409  0.29164676    -0.23400
C924        C  0.26436116  0.56506192  0.33485461     0.19500
F925        F  0.27305439  0.53434699  0.35366083    -0.13300
F926        F  0.28395375  0.59200825  0.40295441    -0.15700
F927        F  0.22842813  0.60243635  0.22996412    -0.15700
F928        F  0.23830796  0.66095851  0.28018921    -0.13300
O929        O  0.75950930  0.19253951  0.36136457    -0.79100
O930        O  0.76107456  0.19125890  0.62572474    -0.80600
O931        O  0.81308767  0.15272338  0.49660411    -0.77600
O932        O  0.70345342  0.15901933  0.49850203    -0.76000
O933        O  0.66393696  0.20224616  0.49718598    -0.77800
O934        O  0.85575586  0.19267845  0.49282097    -0.78700
O935        O  0.75805836  0.15344955  0.56532738    -0.80100
O936        O  0.75892418  0.15325485  0.42006694    -0.80300
Eu937      Eu  0.75959087  0.18428282  0.49280910     2.39200
O938        O  0.72824258  0.21995164  0.54171092    -0.87900
O939        O  0.79401198  0.21689805  0.44384533    -0.91500
C940        C  0.75931939  0.16086248  0.37710684     1.03200
C941        C  0.75917887  0.16005379  0.60859802     1.03000
C942        C  0.84453581  0.16153564  0.49620657     1.03000
C943        C  0.67282227  0.17029717  0.50004997     1.00800
H944        H  0.80865779  0.20115304  0.55915399     0.30600
O945        O  0.79491892  0.21659771  0.54146117    -1.00200
H946        H  0.71094554  0.20570502  0.42746186     0.30600
O947        O  0.72634391  0.21994338  0.44532760    -1.02800
O948        O  0.76506076  0.31194078  0.62836283    -0.80000
O949        O  0.76015670  0.31390645  0.36314730    -0.79600
O950        O  0.85987158  0.24497305  0.56457249    -0.78000
O951        O  0.66651710  0.25150091  0.56768684    -0.81300
O952        O  0.66493574  0.25695250  0.42290065    -0.79200
O953        O  0.85764386  0.24961969  0.41885082    -0.77800
O954        O  0.82187996  0.34696340  0.50731941    -0.79400
O955        O  0.71366623  0.35455134  0.49890181    -0.81300
O956        O  0.86062408  0.30316955  0.50305317    -0.78000
O957        O  0.67112954  0.31437079  0.49674030    -0.80700
O958        O  0.82288010  0.24819373  0.62492420    -0.76400
O959        O  0.81931359  0.25174877  0.35947544    -0.76500
O960        O  0.70098972  0.25481128  0.36189201    -0.76100
O961        O  0.70443942  0.24851513  0.62734738    -0.79600
O962        O  0.76659557  0.35083761  0.56944768    -0.79000
O963        O  0.76485397  0.35199243  0.42311412    -0.77400
Eu964      Eu  0.76323966  0.25179576  0.59262708     2.39800
Eu965      Eu  0.76087154  0.25330809  0.39565676     2.39600
Eu966      Eu  0.82916090  0.24959763  0.49256738     2.38400
Eu967      Eu  0.69564612  0.25620544  0.49497504     2.39900
Eu968      Eu  0.76580676  0.32124737  0.49603536     2.39800
O969        O  0.73003488  0.28925127  0.44694624    -0.91800
O970        O  0.79792773  0.28455751  0.54271478    -0.90700
C971        C  0.76621535  0.34350364  0.61241051     1.03400
C972        C  0.76193315  0.34520551  0.37997533     1.02100
C973        C  0.85320745  0.24515999  0.60770952     1.01500
C974        C  0.67367423  0.24820144  0.61053315     1.03500
C975        C  0.67061634  0.25635040  0.37955753     1.02400
C976        C  0.85017351  0.24996244  0.37580504     1.01300
C977        C  0.85230525  0.33496794  0.50945800     1.01300
C978        C  0.68225704  0.34574347  0.49819791     1.04000
H979        H  0.81228572  0.30113613  0.42729375     0.31300
O980        O  0.79726630  0.28659193  0.44504925    -1.03900
H981        H  0.71663164  0.30352877  0.56323131     0.33400
O982        O  0.73044569  0.28865298  0.54452280    -1.06500
N983        N  0.56164404  0.50408010  0.52382773    -0.35500
N984        N  0.01510383  0.44991985  0.55287949    -0.56100
N985        N  0.96025739  0.49836170  0.55080518    -0.35500
N986        N  0.00851697  0.05459892  0.53432776    -0.56100
C987        C  0.57943190  0.47810377  0.50463683     0.28100
C988        C  0.58116681  0.03302615  0.51974754     0.28100
C989        C  0.94386282  0.46869624  0.53986012     0.28100
C990        C  0.94094137  0.02502750  0.52079222     0.28100
C991        C  0.54253183  0.43038357  0.52900722     0.36700
C992        C  0.98941555  0.42777972  0.56098451     0.36700
C993        C  0.53742421  0.07588908  0.53983535     0.36700
C994        C  0.97984179  0.07270647  0.54126518     0.36700
C995        C  0.60669049  0.49125157  0.48038506    -0.20800
C996        C  0.61007880  0.02393318  0.49563995    -0.20800
C997        C  0.91321916  0.47628662  0.51844719    -0.20800
C998        C  0.91190551  0.01210541  0.49981042    -0.20800
C999        C  0.53611253  0.39716242  0.54459996    -0.21900
C1000       C  0.00189538  0.39582593  0.57445321    -0.21900
C1001       C  0.52585326  0.10873295  0.55121774    -0.21900
C1002       C  0.98736070  0.10619036  0.55533899    -0.21900
C1003       C  0.57394942  0.44296713  0.51382054    -0.17200
C1004       C  0.57109827  0.06721185  0.52939127    -0.17200
C1005       C  0.94760369  0.06036104  0.52876801    -0.17200
C1006       C  0.95543019  0.43499868  0.54985063    -0.17200
H1007       H  0.62602218  0.47681428  0.46230116     0.15700
H1008       H  0.62809366  0.04108158  0.47939837     0.15700
H1009       H  0.89435291  0.45823538  0.50566024     0.15700
H1010       H  0.89105161  0.02667720  0.48517014     0.15700
H1011       H  0.55418503  0.37636394  0.54941864     0.14000
H1012       H  0.98751143  0.37257997  0.58159114     0.14000
H1013       H  0.54089182  0.13166754  0.55808366     0.14000
H1014       H  0.96970529  0.12705204  0.56204593     0.14000
H1015       H  0.54304750  0.50141923  0.54880124     0.27200
H1016       H  0.98201437  0.50075522  0.57101998     0.27200
O1017       O  0.98524010  0.43501381  0.85977052    -0.79100
O1018       O  0.98431938  0.43774133  0.12522098    -0.80600
O1019       O  0.53817572  0.39744110  0.00068345    -0.77600
O1020       O  0.92583839  0.40143331  0.99793570    -0.76000
O1021       O  0.88540745  0.44358385  0.99255706    -0.77800
O1022       O  0.57940468  0.43904435  0.99817488    -0.78700
O1023       O  0.98281854  0.39845543  0.06635015    -0.80100
O1024       O  0.98350319  0.39680615  0.91962554    -0.80300
Eu1025     Eu  0.98247379  0.42795677  0.99248300     2.39200
O1026       O  0.94908377  0.46343418  0.03940392    -0.87900
O1027       O  0.51738669  0.46001130  0.94425132    -0.91500
C1028       C  0.98459251  0.40358698  0.87640266     1.03200
C1029       C  0.98377947  0.40606735  0.10940310     1.03000
C1030       C  0.56930366  0.40751416  0.00227538     1.03000
C1031       C  0.89475841  0.41195458  0.99723816     1.00800
H1032       H  0.53207875  0.44698466  0.06015688     0.30600
O1033       O  0.51760442  0.46109076  0.04133227    -1.00200
H1034       H  0.93534570  0.44727027  0.92360112     0.30600
O1035       O  0.95001076  0.46218274  0.94197416    -1.02800
O1036       O  0.98599915  0.05719379  0.12430918    -0.80000
O1037       O  0.98861030  0.05458092  0.85838345    -0.79600
O1038       O  0.58160987  0.49955532  0.06404555    -0.78000
O1039       O  0.88713516  0.50078255  0.06336195    -0.81300
O1040       O  0.88980160  0.99789991  0.91463372    -0.79200
O1041       O  0.58305822  0.99570846  0.92173243    -0.77800
O1042       O  0.54107259  0.09363370  0.00124969    -0.79400
O1043       O  0.93106473  0.09305612  0.99626620    -0.81300
O1044       O  0.58133261  0.05111844  0.99877500    -0.78000
O1045       O  0.89009202  0.05137301  0.99147978    -0.80700
O1046       O  0.54435990  0.49891766  0.12402184    -0.76400
O1047       O  0.54645430  0.99486348  0.86073249    -0.76500
O1048       O  0.92953357  0.99801829  0.85726440    -0.76100
O1049       O  0.92487272  0.49838900  0.12353601    -0.79600
O1050       O  0.98592984  0.09478388  0.06404205    -0.79000
O1051       O  0.98608637  0.09308627  0.91803828    -0.77400
Eu1052     Eu  0.98349173  0.49759003  0.08937290     2.39800
Eu1053     Eu  0.98799262  0.99493324  0.89352468     2.39600
Eu1054     Eu  0.55089655  0.49500666  0.99225920     2.38400
Eu1055     Eu  0.91648092  0.49759905  0.98918635     2.39900
Eu1056     Eu  0.98549173  0.06329407  0.99180493     2.39800
O1057       O  0.95280059  0.02924361  0.94178508    -0.91800
O1058       O  0.51859074  0.03005955  0.04094210    -0.90700
C1059       C  0.98628357  0.08857267  0.10733660     1.03400
C1060       C  0.98734936  0.08596571  0.87485589     1.02100
C1061       C  0.57495845  0.50078194  0.10710477     1.01500
C1062       C  0.89426240  0.50035878  0.10667045     1.03500
C1063       C  0.89838181  0.99883363  0.87205030     1.02400
C1064       C  0.57701359  0.99486725  0.87840846     1.01300
C1065       C  0.57191124  0.08274764  0.00340274     1.01300
C1066       C  0.89993448  0.08302912  0.99568872     1.04000
H1067       H  0.53497573  0.04579862  0.92677704     0.31300
O1068       O  0.52000685  0.03107029  0.94439997    -1.03900
H1069       H  0.93714224  0.04389311  0.05735399     0.33400
O1070       O  0.95145936  0.02925304  0.03942818    -1.06500
N1071       N  0.78442362  0.24606039  0.02872537    -0.35500
N1072       N  0.73531885  0.19241659  0.04225959    -0.56100
N1073       N  0.68209669  0.24384035  0.05124589    -0.35500
N1074       N  0.73228089  0.29736393  0.03714907    -0.56100
C1075       C  0.80169124  0.21818979  0.01338385     0.28100
C1076       C  0.80030489  0.27439816  0.01242874     0.28100
C1077       C  0.66410660  0.21476218  0.04236820     0.28100
C1078       C  0.66251606  0.27090371  0.03823492     0.28100
C1079       C  0.76372797  0.17305463  0.04422336     0.36700
C1080       C  0.70977726  0.17207064  0.05661529     0.36700
C1081       C  0.75958504  0.31824759  0.03986267     0.36700
C1082       C  0.70533159  0.31696342  0.04827487     0.36700
C1083       C  0.82879838  0.22890375  0.98678416    -0.20800
C1084       C  0.82795246  0.26452980  0.98625702    -0.20800
C1085       C  0.63253031  0.22354557  0.02443653    -0.20800
C1086       C  0.63153409  0.25898734  0.02191364    -0.20800
C1087       C  0.75640923  0.14027559  0.06078292    -0.21900
C1088       C  0.72202519  0.13963721  0.06862287    -0.21900
C1089       C  0.75010758  0.35120349  0.05386592    -0.21900
C1090       C  0.71546879  0.35044917  0.05882772    -0.21900
C1091       C  0.79505966  0.18365322  0.02606422    -0.17200
C1092       C  0.79184264  0.30879722  0.02382031    -0.17200
C1093       C  0.67167403  0.30611437  0.04171186    -0.17200
C1094       C  0.67536033  0.18054742  0.05036854    -0.17200
H1095       H  0.84760816  0.21276482  0.97028009     0.15700
H1096       H  0.84593554  0.28127129  0.96923328     0.15700
H1097       H  0.61237270  0.20630421  0.01350090     0.15700
H1098       H  0.61050568  0.27418377  0.00895811     0.15700
H1099       H  0.77372277  0.11872641  0.06490430     0.14000
H1100       H  0.70742653  0.11741626  0.07958882     0.14000
H1101       H  0.76618635  0.37376615  0.05788049     0.14000
H1102       H  0.69942766  0.37226025  0.06740401     0.14000
H1103       H  0.76579503  0.24597199  0.05388461     0.27200
H1104       H  0.70535174  0.24518582  0.06834017     0.27200
C1105       C  0.54060169  0.24813654  0.27621488     0.87600
C1106       C  0.53660900  0.21500865  0.24753745    -0.52700
C1107       C  0.00746813  0.21528216  0.21766812     0.10500
C1108       C  0.98509957  0.24828765  0.22569313     0.21400
C1109       C  0.53704076  0.27777700  0.24211492    -0.53400
C1110       C  0.00801297  0.28082051  0.21820615     0.10600
C1111       C  0.00898175  0.24770804  0.30289596    -0.52900
C1112       C  0.97913598  0.24836770  0.27796853     0.11200
H1113       H  0.55510602  0.19421386  0.24862894     0.15700
H1114       H  0.96110690  0.24821344  0.20559771     0.01400
H1115       H  0.55587716  0.29826129  0.23988579     0.16000
H1116       H  0.00921974  0.24685643  0.34007782     0.15800
C1117       C  0.70405086  0.50073702  0.21186524     0.87600
C1118       C  0.70894706  0.46893462  0.24263427    -0.52700
C1119       C  0.73844274  0.46841248  0.26744990     0.10500
C1120       C  0.76109283  0.50092723  0.25929335     0.21400
C1121       C  0.70941169  0.03160998  0.24522601    -0.53400
C1122       C  0.74011279  0.03450327  0.26723918     0.10600
C1123       C  0.73680568  0.50057377  0.18227327    -0.52900
C1124       C  0.76669974  0.50081826  0.20704162     0.11200
H1125       H  0.69141758  0.44728062  0.24293006     0.15700
H1126       H  0.78529824  0.50087605  0.27888035     0.01400
H1127       H  0.69007939  0.05158852  0.24692834     0.16000
H1128       H  0.73665090  0.49948238  0.14509237     0.15800
C1129       C  0.54442541  0.24655187  0.71181763     0.87600
C1130       C  0.53872904  0.27826918  0.74262714    -0.52700
C1131       C  0.00793691  0.27775968  0.76736262     0.10500
C1132       C  0.98660519  0.24410384  0.75941953     0.21400
C1133       C  0.54078410  0.21506458  0.74317390    -0.53400
C1134       C  0.01008008  0.21231539  0.76902696     0.10600
C1135       C  0.01182570  0.24370570  0.68325925    -0.52900
C1136       C  0.98165485  0.24299971  0.70692659     0.11200
H1137       H  0.55574009  0.30032842  0.74312646     0.15700
H1138       H  0.96230471  0.24342925  0.77841202     0.01400
H1139       H  0.56010969  0.19505935  0.74498985     0.16000
H1140       H  0.01255327  0.24435049  0.64607456     0.15800
C1141       C  0.70261137  0.49956201  0.77247646     0.87600
C1142       C  0.70904339  0.03333221  0.74292483    -0.52700
C1143       C  0.73799624  0.03467575  0.71734416     0.10500
C1144       C  0.75944859  0.50270947  0.72589751     0.21400
C1145       C  0.70830546  0.46890993  0.74016241    -0.53400
C1146       C  0.73838216  0.46910488  0.71714554     0.10600
C1147       C  0.73561211  0.50099459  0.80256516    -0.52900
C1148       C  0.76530130  0.50255898  0.77788497     0.11200
H1149       H  0.69056549  0.05418200  0.74277303     0.15700
H1150       H  0.78360260  0.50396250  0.70659601     0.01400
H1151       H  0.69054285  0.44742521  0.73805224     0.16000
H1152       H  0.73578061  0.50116225  0.83976025     0.15800
C1153       C  0.63511216  0.02102830  0.12623819     0.24700
C1154       C  0.60579223  0.50442205  0.13737017    -0.23400
C1155       C  0.60812496  0.48886063  0.18069312     0.19600
C1156       C  0.63916012  0.48850017  0.20510605     0.24600
C1157       C  0.66949936  0.50208786  0.18582375    -0.23400
C1158       C  0.66551749  0.02033889  0.15161042     0.19500
F1159       F  0.69146236  0.04075527  0.13742468    -0.13300
F1160       F  0.63383487  0.04084724  0.08782226    -0.15700
F1161       F  0.63888489  0.47563010  0.24833093    -0.15700
F1162       F  0.58055899  0.47326261  0.19918621    -0.13300
C1163       C  0.85848795  0.47900333  0.17336345     0.24700
C1164       C  0.86429941  0.50296731  0.13785572    -0.23400
C1165       C  0.83559148  0.01829150  0.11988795     0.19600
C1166       C  0.80452817  0.01807356  0.14311501     0.24600
C1167       C  0.80109849  0.50220253  0.18513765    -0.23400
C1168       C  0.82716843  0.47863822  0.19683745     0.19500
F1169       F  0.82175237  0.45415289  0.22933142    -0.13300
F1170       F  0.88223843  0.45467144  0.18343525    -0.15700
F1171       F  0.77868632  0.03770705  0.12643709    -0.18700
F1172       F  0.83825586  0.03825567  0.08177911    -0.13300
C1173       C  0.49974074  0.37394581  0.18416162     0.24700
C1174       C  0.98532382  0.37529223  0.14122857    -0.23400
C1175       C  0.97508087  0.34214264  0.12517609     0.19600
C1176       C  0.98105972  0.31203008  0.15083525     0.24600
C1177       C  0.99764941  0.31359383  0.19343802    -0.23400
C1178       C  0.50422068  0.34366435  0.21026960     0.19500
F1179       F  0.51553406  0.34697939  0.25414850    -0.13300
F1180       F  0.50979509  0.40475591  0.20222701    -0.15700
F1181       F  0.97184957  0.28109513  0.13260284    -0.15700
F1182       F  0.95991291  0.33837598  0.08356724    -0.13300
C1183       C  0.50263362  0.11638253  0.18797041     0.24700
C1184       C  0.98788852  0.12072689  0.13771740    -0.23400
C1185       C  0.98555237  0.15437578  0.11785977     0.19600
C1186       C  0.99050732  0.18468507  0.14402764     0.24600
C1187       C  0.99749467  0.18304223  0.19109837    -0.23400
C1188       C  0.50644243  0.14679589  0.21461892     0.19500
F1189       F  0.51788937  0.14367522  0.25845646    -0.13300
F1190       F  0.51237251  0.08558753  0.20617574    -0.15700
F1191       F  0.99078842  0.21568789  0.12234244    -0.15700
F1192       F  0.97940920  0.15848325  0.07230926    -0.13300
C1193       C  0.64765498  0.35265055  0.99208659     0.24700
C1194       C  0.64563133  0.33269287  0.03223835    -0.23400
C1195       C  0.61823039  0.33719268  0.06215559     0.19600
C1196       C  0.59317621  0.36160646  0.05216056     0.24600
C1197       C  0.59513388  0.38135887  0.01185041    -0.23400
C1198       C  0.62256613  0.37696170  0.98207549     0.19500
F1199       F  0.62456252  0.39562314  0.94284303    -0.13300
F1200       F  0.67361187  0.34805669  0.96223423    -0.15700
F1201       F  0.56760262  0.36679118  0.08245656    -0.15700
F1202       F  0.61588500  0.31794261  0.10091928    -0.13300
C1203       C  0.81364140  0.36090057  0.98269185     0.24700
C1204       C  0.81764431  0.33595364  0.01723820    -0.23400
C1205       C  0.84646635  0.33661810  0.04561354     0.19600
C1206       C  0.87135048  0.36171263  0.03917006     0.24600
C1207       C  0.86801671  0.38606561  0.00380423    -0.23400
C1208       C  0.83861687  0.38605917  0.97622199     0.19500
F1209       F  0.83435301  0.40997384  0.94267396    -0.13300
F1210       F  0.78575899  0.36054981  0.95506724    -0.15700
F1211       F  0.89802953  0.36321997  0.06869539    -0.15700
F1212       F  0.85023701  0.31312749  0.07984632    -0.13300
C1213       C  0.87701975  0.13390565  0.03783741     0.24700
C1214       C  0.87366804  0.10940596  0.00227087    -0.23400
C1215       C  0.84421207  0.10909298  0.97494179     0.19600
C1216       C  0.81846779  0.13316397  0.98284140     0.24600
C1217       C  0.82181198  0.15753926  0.01841160    -0.23400
C1218       C  0.85117269  0.15782020  0.04586187     0.19500
F1219       F  0.85448578  0.18101122  0.08074659    -0.13300
F1220       F  0.90467480  0.13377979  0.06589925    -0.15700
F1221       F  0.79041311  0.13298735  0.95558343    -0.15700
F1222       F  0.84069474  0.08583945  0.94017549    -0.13300
C1223       C  0.59514157  0.12775711  0.05517182     0.24700
C1224       C  0.59837763  0.10766531  0.01519139    -0.23400
C1225       C  0.62841716  0.10891874  0.98974807     0.19600
C1226       C  0.65441573  0.13132661  0.00294767     0.24600
C1227       C  0.65086248  0.15221024  0.04222306    -0.23400
C1228       C  0.62145698  0.14964136  0.06896525     0.19500
F1229       F  0.61781408  0.16932573  0.10731623    -0.13300
F1230       F  0.56676709  0.12561627  0.08125344    -0.15700
F1231       F  0.68246405  0.13382116  0.97630204    -0.15700
F1232       F  0.63207197  0.08928085  0.95135185    -0.13300
C1233       C  0.84398497  0.46881769  0.83956199     0.24700
C1234       C  0.86934697  0.00018756  0.83904805    -0.23400
C1235       C  0.85552788  0.03216324  0.82498446     0.19600
C1236       C  0.82322871  0.03365677  0.80372667     0.24600
C1237       C  0.80015679  0.50123592  0.79863281    -0.23400
C1238       C  0.81170243  0.47048991  0.81897761     0.19500
F1239       F  0.79161649  0.44190539  0.81872922    -0.13300
F1240       F  0.85353382  0.43919594  0.86093582    -0.15700
F1241       F  0.81025946  0.06487122  0.79135075    -0.15700
F1242       F  0.87269398  0.06202619  0.83359791    -0.13300
C1243       C  0.60593671  0.50397322  0.80226277     0.24700
C1244       C  0.60853703  0.99399898  0.84917141    -0.23400
C1245       C  0.63939002  0.98194026  0.86855844     0.19600
C1246       C  0.67032410  0.98471833  0.84536190     0.24600
C1247       C  0.66820389  0.49583919  0.79788879    -0.23400
C1248       C  0.63685413  0.50681959  0.77810703     0.19500
F1249       F  0.63564050  0.51953461  0.73479071    -0.13300
F1250       F  0.57695047  0.51611644  0.78273977    -0.15700
F1251       F  0.69810000  0.97077027  0.86579508    -0.15700
F1252       F  0.63988358  0.96674411  0.91049710    -0.13300
C1253       C  0.48385322  0.18101520  0.83309774     0.24700
C1254       C  0.99974648  0.17932720  0.79304895    -0.23400
C1255       C  0.00790399  0.14637671  0.77441038     0.19600
C1256       C  0.00284840  0.11571754  0.79968865     0.24600
C1257       C  0.98822041  0.11694972  0.84361613    -0.23400
C1258       C  0.47806724  0.15079170  0.85857877     0.19500
F1259       F  0.46241567  0.15418945  0.89970913    -0.13300
F1260       F  0.47395880  0.21165578  0.85111551    -0.15700
F1261       F  0.01357764  0.08513554  0.78179687    -0.15700
F1262       F  0.02095751  0.14372561  0.73153023    -0.13300
C1263       C  0.99759753  0.37392864  0.79976057     0.24700
C1264       C  0.98589940  0.37213786  0.84526721    -0.23400
C1265       C  0.47828489  0.33833348  0.86233620     0.19600
C1266       C  0.48405824  0.30843254  0.83598989     0.24600
C1267       C  0.99675004  0.31018560  0.79240140    -0.23400
C1268       C  0.00237815  0.34352166  0.77353087     0.19500
F1269       F  0.01288659  0.34680390  0.72947699    -0.13300
F1270       F  0.00584125  0.40493794  0.78103595    -0.15700
F1271       F  0.47791570  0.27719820  0.85508743    -0.15700
F1272       F  0.46586222  0.33403614  0.90530811    -0.13300
C1273       C  0.90961903  0.21825707  0.62516909     0.24700
C1274       C  0.88356114  0.24138770  0.63802268    -0.23400
C1275       C  0.88933164  0.26370230  0.67542631     0.19600
C1276       C  0.92091968  0.26381950  0.69833646     0.24600
C1277       C  0.94743455  0.24169311  0.68416992    -0.23400
C1278       C  0.94105324  0.21836048  0.64795867     0.19500
F1279       F  0.96521808  0.19540096  0.63468280    -0.13300
F1280       F  0.90479033  0.19574252  0.58978284    -0.15700
F1281       F  0.92612485  0.28696707  0.73279275    -0.15700
F1282       F  0.86523355  0.28695897  0.68787590    -0.13300
C1283       C  0.64058654  0.25921079  0.68391525     0.24700
C1284       C  0.64318192  0.24375630  0.64048467    -0.23400
C1285       C  0.61434256  0.22642479  0.62272275     0.19600
C1286       C  0.58312744  0.22719880  0.64553959     0.24600
C1287       C  0.57909806  0.24609213  0.68670157    -0.23400
C1288       C  0.60919350  0.26011753  0.70695676     0.19500
F1289       F  0.60887621  0.27423508  0.74961468    -0.13300
F1290       F  0.66820206  0.27420068  0.70375196    -0.15700
F1291       F  0.55712303  0.20851267  0.62738307    -0.15700
F1292       F  0.61635781  0.20824046  0.58284704    -0.13300
C1293       C  0.74720782  0.13069098  0.68519849     0.24700
C1294       C  0.75774351  0.12871235  0.63919030    -0.23400
C1295       C  0.76484401  0.09538533  0.62092210     0.19600
C1296       C  0.75938640  0.06524123  0.64657636     0.24600
C1297       C  0.74730007  0.06706351  0.69158528    -0.23400
C1298       C  0.74240028  0.10032739  0.71115555     0.19500
F1299       F  0.73281554  0.10354870  0.75563009    -0.13300
F1300       F  0.74029037  0.16184750  0.70472452    -0.15700
F1301       F  0.76434505  0.03414135  0.62619314    -0.15700
F1302       F  0.77661259  0.09156816  0.57749465    -0.13300
C1303       C  0.76786919  0.43810115  0.65167473     0.24700
C1304       C  0.75111271  0.43665950  0.69389142    -0.23400
C1305       C  0.74512605  0.40347122  0.71304216     0.19600
C1306       C  0.75262300  0.37291663  0.68853420     0.24600
C1307       C  0.76558158  0.37460329  0.64376293    -0.23400
C1308       C  0.77452489  0.40777932  0.62667160     0.19500
F1309       F  0.78871791  0.41135603  0.58460816    -0.13300
F1310       F  0.77627924  0.46893511  0.63296415    -0.15700
F1311       F  0.74568317  0.34182767  0.70797007    -0.15700
F1312       F  0.73164528  0.40042278  0.75559249    -0.13300
C1313       C  0.91569135  0.09893498  0.47561840     0.24700
C1314       C  0.92043321  0.08566010  0.51999771    -0.23400
C1315       C  0.89919702  0.09625026  0.55576925     0.19600
C1316       C  0.87343900  0.12015780  0.54726502     0.24600
C1317       C  0.86950784  0.13433663  0.50329722    -0.23400
C1318       C  0.89059335  0.12366426  0.46744906     0.19500
F1319       F  0.88653724  0.13685077  0.42466662    -0.13300
F1320       F  0.93526320  0.08772596  0.44039015    -0.15700
F1321       F  0.85283189  0.13018379  0.58206353    -0.15700
F1322       F  0.90372616  0.08367607  0.59881632    -0.13300
C1323       C  0.61606156  0.14549000  0.48220431     0.24700
C1324       C  0.64636603  0.14464930  0.50763460    -0.23400
C1325       C  0.65149469  0.11898612  0.54102706     0.19600
C1326       C  0.62631921  0.09466193  0.54940068     0.24600
C1327       C  0.59626362  0.09500411  0.52336645    -0.23400
C1328       C  0.59147745  0.12016075  0.48920290     0.19500
F1329       F  0.56352673  0.11940093  0.46173180    -0.13300
F1330       F  0.61093465  0.16987609  0.44940666    -0.15700
F1331       F  0.63152096  0.07024823  0.58216423    -0.15700
F1332       F  0.68073663  0.11776627  0.56593406    -0.13300
C1333       C  0.60206706  0.39405959  0.47352577     0.24700
C1334       C  0.60266377  0.41910281  0.50835951    -0.23400
C1335       C  0.63144943  0.42269351  0.53667733     0.19600
C1336       C  0.65850798  0.39970480  0.53224209     0.24600
C1337       C  0.65685684  0.37319141  0.49919954    -0.23400
C1338       C  0.62931420  0.37152664  0.46860525     0.19500
F1339       F  0.62925688  0.34840401  0.43348127    -0.13300
F1340       F  0.57525997  0.39169197  0.44420046    -0.15700
F1341       F  0.68557466  0.40256885  0.56110145    -0.15700
F1342       F  0.63296837  0.44816542  0.56891028    -0.13300
C1343       C  0.87703079  0.38003541  0.56061056     0.24700
C1344       C  0.87959118  0.35906914  0.52130131    -0.23400
C1345       C  0.90881139  0.36052794  0.49421229     0.19600
C1346       C  0.93443886  0.38423326  0.50473812     0.24600
C1347       C  0.93135224  0.40609070  0.54313518    -0.23400
C1348       C  0.90280529  0.40347525  0.57144016     0.19500
F1349       F  0.89943546  0.42463486  0.60844931    -0.13300
F1350       F  0.84985640  0.37742838  0.58878127    -0.15700
F1351       F  0.96134489  0.38720040  0.47614420    -0.15700
F1352       F  0.91175027  0.34003018  0.45649043    -0.13300
C1353       C  0.60816007  0.26909566  0.36979018     0.24700
C1354       C  0.63885104  0.25707673  0.35031600    -0.23400
C1355       C  0.63739437  0.24432922  0.30508022     0.19600
C1356       C  0.60600860  0.24169743  0.28147007     0.24600
C1357       C  0.57483158  0.25084832  0.30275618    -0.23400
C1358       C  0.57712286  0.26653859  0.34647580     0.19500
F1359       F  0.54989893  0.28156990  0.36655778    -0.13300
F1360       F  0.60786286  0.28419429  0.41191076    -0.15700
F1361       F  0.60635014  0.23054480  0.23726834    -0.15700
F1362       F  0.66616629  0.23391717  0.28373814    -0.13300
C1363       C  0.88606883  0.26935199  0.30769731     0.24700
C1364       C  0.88040631  0.24704150  0.34504871    -0.23400
C1365       C  0.90687351  0.22448717  0.35825258     0.19600
C1366       C  0.93830107  0.22485022  0.33621389     0.24600
C1367       C  0.94455889  0.24760236  0.29971087    -0.23400
C1368       C  0.91781359  0.26953711  0.28508954     0.19500
F1369       F  0.92297738  0.29259507  0.25075611    -0.13300
F1370       F  0.86182265  0.29246438  0.29506252    -0.15700
F1371       F  0.96277483  0.20269942  0.35092135    -0.15700
F1372       F  0.90259693  0.20234338  0.39382544    -0.13300
C1373       C  0.76598428  0.41009430  0.36647314     0.24700
C1374       C  0.75953632  0.37631528  0.34896127    -0.23400
C1375       C  0.74856570  0.37348947  0.30299524     0.19600
C1376       C  0.74357809  0.40325589  0.27602399     0.24600
C1377       C  0.74828266  0.43685262  0.29451643    -0.23400
C1378       C  0.75984813  0.43972769  0.33990296     0.19500
F1379       F  0.76335980  0.47129679  0.35976481    -0.13300
F1380       F  0.77754586  0.41490391  0.41002410    -0.15700
F1381       F  0.73376988  0.39912736  0.23160670    -0.15700
F1382       F  0.74145203  0.34204185  0.28431953    -0.13300
C1383       C  0.77311258  0.09802581  0.35935307     0.24700
C1384       C  0.75917688  0.13011266  0.34504060    -0.23400
C1385       C  0.74317820  0.13115982  0.30187003     0.19600
C1386       C  0.73882481  0.10066748  0.27560777     0.24600
C1387       C  0.75013813  0.06790753  0.29180310    -0.23400
C1388       C  0.76926260  0.06769662  0.33276308     0.19500
F1389       F  0.78347761  0.03798912  0.34829499    -0.13300
F1390       F  0.79021203  0.09570703  0.39984674    -0.15700
F1391       F  0.72365366  0.10348193  0.23386242    -0.15700
F1392       F  0.73024686  0.16141834  0.28585915    -0.13300
O1393       O  0.76130037  0.69042639  0.36122144    -0.79100
O1394       O  0.75958330  0.69074106  0.62725219    -0.80600
O1395       O  0.81425645  0.65018472  0.49708835    -0.77600
O1396       O  0.70500146  0.65426672  0.50002730    -0.76000
O1397       O  0.66568572  0.69758562  0.49615961    -0.77800
O1398       O  0.85692714  0.69010507  0.49246952    -0.78700
O1399       O  0.75941699  0.65240488  0.56736459    -0.80100
O1400       O  0.75973812  0.65110190  0.41995555    -0.80300
Eu1401     Eu  0.76056025  0.68144599  0.49310159     2.39200
O1402       O  0.72804643  0.71726996  0.54032983    -0.87900
O1403       O  0.79521555  0.71438799  0.44430760    -0.91500
C1404       C  0.76040686  0.65879784  0.37703006     1.03200
C1405       C  0.75914714  0.65941596  0.61060351     1.03000
C1406       C  0.84571785  0.65898067  0.49640588     1.03000
C1407       C  0.67433757  0.66563681  0.50063313     1.00800
H1408       H  0.80842530  0.69933343  0.55999492     0.30600
O1409       O  0.79489085  0.71468298  0.54185161    -1.00200
H1410       H  0.71318008  0.70218390  0.42556669     0.30600
O1411       O  0.72818891  0.71668138  0.44373246    -1.02800
O1412       O  0.76183842  0.81043928  0.62816679    -0.80000
O1413       O  0.76340903  0.81304895  0.36424347    -0.79600
O1414       O  0.85917892  0.74192825  0.56691969    -0.78000
O1415       O  0.66491347  0.75012732  0.56202037    -0.81300
O1416       O  0.66649182  0.75151823  0.41837018    -0.79200
O1417       O  0.85899972  0.74743536  0.41882137    -0.77800
O1418       O  0.82186887  0.84448537  0.50649441    -0.79400
O1419       O  0.71240975  0.85013701  0.49969511    -0.81300
O1420       O  0.86115613  0.80117411  0.50185567    -0.78000
O1421       O  0.66996774  0.80999039  0.49447125    -0.80700
O1422       O  0.82088214  0.74639431  0.62582299    -0.76400
O1423       O  0.82084067  0.75041184  0.35924306    -0.76500
O1424       O  0.70414938  0.75080058  0.35893667    -0.76100
O1425       O  0.70176818  0.74769928  0.62289873    -0.79600
O1426       O  0.76484240  0.84873627  0.56888287    -0.79000
O1427       O  0.76722684  0.85082352  0.42462646    -0.77400
Eu1428     Eu  0.76192600  0.75008892  0.59183986     2.39800
Eu1429     Eu  0.76280924  0.75117169  0.39523910     2.39600
Eu1430     Eu  0.83014815  0.74706641  0.49325651     2.38400
Eu1431     Eu  0.69605930  0.75259273  0.49145986     2.39900
Eu1432     Eu  0.76580144  0.81855207  0.49577172     2.39800
O1433       O  0.73059995  0.78700042  0.44495522    -0.91800
O1434       O  0.79805986  0.78228512  0.54296579    -0.90700
C1435       C  0.76310664  0.84195811  0.61192743     1.03400
C1436       C  0.76535302  0.84438443  0.38139295     1.02100
C1437       C  0.85147918  0.74279634  0.60977750     1.01500
C1438       C  0.67126972  0.74763333  0.60508837     1.03500
C1439       C  0.67342693  0.75112618  0.37534547     1.02400
C1440       C  0.85158845  0.74849974  0.37563319     1.01300
C1441       C  0.85251163  0.83299269  0.50751113     1.01300
C1442       C  0.68096122  0.84126922  0.49882151     1.04000
H1443       H  0.81336384  0.79864583  0.42849594     0.31300
O1444       O  0.79822081  0.78397721  0.44586668    -1.03900
H1445       H  0.71551067  0.80025856  0.56046418     0.33400
O1446       O  0.72972688  0.78554816  0.54209949    -1.06500
N1447       N  0.56523661  0.00433192  0.53480711    -0.35500
N1448       N  0.01595196  0.94968015  0.53591900    -0.56100
N1449       N  0.96066920  0.99860274  0.53544117    -0.35500
N1450       N  0.00925024  0.55441887  0.54379146    -0.56100
C1451       C  0.58379811  0.97702300  0.52052392     0.28100
C1452       C  0.57749867  0.53371104  0.51263952     0.28100
C1453       C  0.94460481  0.96898531  0.52369690     0.28100
C1454       C  0.94066008  0.52465521  0.53569443     0.28100
C1455       C  0.54437034  0.93054423  0.54326485     0.36700
C1456       C  0.99018761  0.92760776  0.54391157     0.36700
C1457       C  0.53595443  0.57440476  0.54548817     0.36700
C1458       C  0.98076860  0.57265492  0.55133654     0.36700
C1459       C  0.61174388  0.98845134  0.49612019    -0.20800
C1460       C  0.60551732  0.52657575  0.48553562    -0.20800
C1461       C  0.91422634  0.97662504  0.50162010    -0.20800
C1462       C  0.91114954  0.51168868  0.51595586    -0.20800
C1463       C  0.53622554  0.89696635  0.55591608    -0.21900
C1464       C  0.00267500  0.89522027  0.55562642    -0.21900
C1465       C  0.52534934  0.60636359  0.56176448    -0.21900
C1466       C  0.98864438  0.60674888  0.56218368    -0.21900
C1467       C  0.57689500  0.94217452  0.53083666    -0.17200
C1468       C  0.56869178  0.56658420  0.52953810    -0.17200
C1469       C  0.94820720  0.56007137  0.54086762    -0.17200
C1470       C  0.95595855  0.93533347  0.53448289    -0.17200
H1471       H  0.63131219  0.97285945  0.48032850     0.15700
H1472       H  0.62367864  0.54482356  0.47186629     0.15700
H1473       H  0.89558968  0.95851907  0.48835223     0.15700
H1474       H  0.89033831  0.52620049  0.50109215     0.15700
H1475       H  0.55351256  0.87562314  0.56176925     0.14000
H1476       H  0.98825806  0.87195351  0.56250885     0.14000
H1477       H  0.54083567  0.62905179  0.56822137     0.14000
H1478       H  0.97108691  0.62777761  0.56846118     0.14000
H1479       H  0.54499249  0.00365067  0.55763402     0.27200
H1480       H  0.98188778  0.00055867  0.55675883     0.27200
O1481       O  0.98743832  0.93469532  0.85885460    -0.79100
O1482       O  0.98796187  0.93522838  0.12429854    -0.80600
O1483       O  0.53969439  0.89836965  0.99579298    -0.77600
O1484       O  0.93090873  0.89748434  0.99280307    -0.76000
O1485       O  0.88981557  0.93902353  0.98789641    -0.77800
O1486       O  0.58078635  0.94013596  0.99395847    -0.78700
O1487       O  0.98680891  0.89694098  0.06429890    -0.80100
O1488       O  0.98659248  0.89596028  0.91804923    -0.80300
Eu1489     Eu  0.98582281  0.92666190  0.99144709     2.39200
O1490       O  0.95161623  0.96109884  0.03924782    -0.87900
O1491       O  0.51935308  0.96082947  0.94484830    -0.91500
C1492       C  0.98679741  0.90319311  0.87490581     1.03200
C1493       C  0.98813175  0.90386116  0.10739461     1.03000
C1494       C  0.57078299  0.90852461  0.99607655     1.03000
C1495       C  0.89975079  0.90736823  0.99090858     1.00800
H1496       H  0.53375681  0.94701765  0.06024481     0.30600
O1497       O  0.51917948  0.96142920  0.04195430    -1.00200
H1498       H  0.93842998  0.94590131  0.92278825     0.30600
O1499       O  0.95286576  0.96075811  0.94174251    -1.02800
O1500       O  0.98525886  0.55833892  0.12192858    -0.80000
O1501       O  0.98668997  0.55709119  0.85908391    -0.79600
O1502       O  0.58309202  0.99852030  0.06564109    -0.78000
O1503       O  0.88820288  0.99567380  0.06217319    -0.81300
O1504       O  0.88787571  0.49702017  0.91419937    -0.79200
O1505       O  0.58126013  0.49231180  0.92010846    -0.77800
O1506       O  0.53739371  0.59308018  0.99826356    -0.79400
O1507       O  0.92907560  0.59390816  0.99004626    -0.81300
O1508       O  0.57856701  0.55156590  0.99390003    -0.78000
O1509       O  0.88766358  0.55256460  0.98582235    -0.80700
O1510       O  0.54528174  0.99817438  0.12500042    -0.76400
O1511       O  0.54366622  0.49249136  0.86004345    -0.76500
O1512       O  0.92672622  0.49836953  0.85586942    -0.76100
O1513       O  0.92516953  0.99532603  0.12326114    -0.79600
O1514       O  0.98511524  0.59669612  0.06229509    -0.79000
O1515       O  0.98661496  0.59646832  0.91801550    -0.77400
Eu1516     Eu  0.98499754  0.99575444  0.09058740     2.39800
Eu1517     Eu  0.98494095  0.49623027  0.89281959     2.39600
Eu1518     Eu  0.55234498  0.99586585  0.99331903     2.38400
Eu1519     Eu  0.91845890  0.99511117  0.98924107     2.39900
Eu1520     Eu  0.98453751  0.56544130  0.99018853     2.39800
O1521       O  0.95085636  0.53131769  0.94121343    -0.91800
O1522       O  0.51735114  0.52937399  0.04042353    -0.90700
C1523       C  0.98570721  0.58966970  0.10536432     1.03400
C1524       C  0.98689524  0.58879155  0.87503969     1.02100
C1525       C  0.57605368  0.99934497  0.10864345     1.01500
C1526       C  0.89460661  0.99605669  0.10560529     1.03500
C1527       C  0.89576577  0.49787384  0.87134637     1.02400
C1528       C  0.57443345  0.49143062  0.87691849     1.01300
C1529       C  0.56842244  0.58310365  0.99782977     1.01300
C1530       C  0.89786600  0.58402022  0.98852146     1.04000
H1531       H  0.53263292  0.54453218  0.92617270     0.31300
O1532       O  0.51777054  0.52982182  0.94395341    -1.03900
H1533       H  0.93594772  0.54706544  0.05606118     0.33400
O1534       O  0.95010812  0.53202140  0.03845948    -1.06500
N1535       N  0.78494775  0.74491667  0.02355476    -0.35500
N1536       N  0.73300066  0.69296945  0.02869992    -0.56100
N1537       N  0.68215996  0.74598353  0.03166551    -0.35500
N1538       N  0.73454675  0.79777270  0.02697760    -0.56100
C1539       C  0.80182473  0.71642422  0.00988862     0.28100
C1540       C  0.80220487  0.77238234  0.00720899     0.28100
C1541       C  0.66390928  0.71829384  0.01774645     0.28100
C1542       C  0.66487911  0.77430719  0.01810002     0.28100
C1543       C  0.76029016  0.67252751  0.03455751     0.36700
C1544       C  0.70566997  0.67310088  0.03685563     0.36700
C1545       C  0.76240823  0.81752597  0.03206355     0.36700
C1546       C  0.70804063  0.81787533  0.03811957     0.36700
C1547       C  0.83020732  0.72579518  0.98484050    -0.20800
C1548       C  0.83037884  0.76127892  0.98303206    -0.20800
C1549       C  0.63464469  0.72906130  0.99529197    -0.20800
C1550       C  0.63528276  0.76460266  0.99545391    -0.20800
C1551       C  0.75039609  0.63947708  0.04736125    -0.21900
C1552       C  0.71551463  0.63982463  0.04872487    -0.21900
C1553       C  0.75380798  0.85027697  0.04769696    -0.21900
C1554       C  0.71902851  0.85049498  0.05161031    -0.21900
C1555       C  0.79316137  0.68231945  0.02162802    -0.17200
C1556       C  0.79448651  0.80714032  0.01684406    -0.17200
C1557       C  0.67448060  0.80858235  0.02799019    -0.17200
C1558       C  0.67240701  0.68366299  0.02682519    -0.17200
H1559       H  0.84894679  0.70884873  0.96965249     0.15700
H1560       H  0.84931852  0.77711087  0.96638435     0.15700
H1561       H  0.61490826  0.71299516  0.98038772     0.15700
H1562       H  0.61611757  0.78136704  0.98072030     0.15700
H1563       H  0.76650240  0.61714640  0.05289194     0.14000
H1564       H  0.69926283  0.61784080  0.05557491     0.14000
H1565       H  0.77062721  0.87203236  0.05363999     0.14000
H1566       H  0.70350487  0.87253807  0.06085018     0.14000
H1567       H  0.76527667  0.74557456  0.04725429     0.27200
H1568       H  0.70328173  0.74566783  0.05336449     0.27200
C1569       C  0.54405178  0.74524950  0.27179540     0.87600
C1570       C  0.53776002  0.71345390  0.24125988    -0.52700
C1571       C  0.00882727  0.71362123  0.21751409     0.10500
C1572       C  0.98614154  0.74656591  0.22417883     0.21400
C1573       C  0.54024850  0.77659711  0.24030925    -0.53400
C1574       C  0.00927005  0.77880451  0.21645692     0.10600
C1575       C  0.00886150  0.74684868  0.30190250    -0.52900
C1576       C  0.97947953  0.74712272  0.27618981     0.11200
H1577       H  0.55408964  0.69092997  0.24128392     0.15700
H1578       H  0.96236994  0.74646538  0.20357770     0.01400
H1579       H  0.55953675  0.79665619  0.23833206     0.16000
H1580       H  0.00807491  0.74511813  0.33895694     0.15800
C1581       C  0.70411534  0.99858573  0.21670717     0.87600
C1582       C  0.71036704  0.96855552  0.25024174    -0.52700
C1583       C  0.74098917  0.96926938  0.27257206     0.10500
C1584       C  0.76281439  0.00162492  0.26025890     0.21400
C1585       C  0.70834549  0.53193084  0.24378908    -0.53400
C1586       C  0.73844055  0.53352142  0.26743337     0.10600
C1587       C  0.73576683  0.99674760  0.18523471    -0.52900
C1588       C  0.76658621  0.99869614  0.20769390     0.11200
H1589       H  0.69394754  0.94617913  0.25279200     0.15700
H1590       H  0.78758062  0.00281141  0.27839385     0.01400
H1591       H  0.68915464  0.55203390  0.24591550     0.16000
H1592       H  0.73389933  0.99340387  0.14832731     0.15800
C1593       C  0.54295061  0.74631087  0.70909118     0.87600
C1594       C  0.53777372  0.77818044  0.73997321    -0.52700
C1595       C  0.00803625  0.77937452  0.76272114     0.10500
C1596       C  0.98652202  0.74570841  0.75691211     0.21400
C1597       C  0.54057862  0.71491342  0.74094148    -0.53400
C1598       C  0.01009842  0.71416019  0.76684453     0.10600
C1599       C  0.00988611  0.74356225  0.67979286    -0.52900
C1600       C  0.98046352  0.74343497  0.70493779     0.11200
H1601       H  0.55468233  0.80037211  0.73952712     0.15700
H1602       H  0.96246631  0.74574628  0.77647901     0.01400
H1603       H  0.56030146  0.69529699  0.74211991     0.16000
H1604       H  0.00929016  0.74355629  0.64261361     0.15800
C1605       C  0.70620069  0.00190187  0.77482001     0.87600
C1606       C  0.70589706  0.53201579  0.74238912    -0.52700
C1607       C  0.73553048  0.53436292  0.71840673     0.10500
C1608       C  0.76164235  0.00273013  0.72498226     0.21400
C1609       C  0.71049764  0.97022855  0.74378107    -0.53400
C1610       C  0.73963496  0.96929853  0.71871618     0.10600
C1611       C  0.74001339  0.00383887  0.80303652    -0.52900
C1612       C  0.76893962  0.00403791  0.77682947     0.11200
H1613       H  0.68726584  0.55269661  0.74222278     0.15700
H1614       H  0.78518609  0.00303437  0.70426691     0.01400
H1615       H  0.69217853  0.94918992  0.74336397     0.16000
H1616       H  0.74148909  0.00582050  0.84006281     0.15800
C1617       C  0.63486074  0.52173078  0.12066862     0.24700
C1618       C  0.60648628  0.00165523  0.13981883    -0.23400
C1619       C  0.60901018  0.98236847  0.18041999     0.19600
C1620       C  0.63964064  0.98139174  0.20592232     0.24600
C1621       C  0.66932328  0.99909762  0.19074577    -0.23400
C1622       C  0.66592925  0.52087129  0.14453343     0.19500
F1623       F  0.69215500  0.53953286  0.12746036    -0.13300
F1624       F  0.63320285  0.54010989  0.08101736    -0.15700
F1625       F  0.63912958  0.96406014  0.24624143    -0.15700
F1626       F  0.58212045  0.96328954  0.19464834    -0.13300
C1627       C  0.85962081  0.97925130  0.17606469     0.24700
C1628       C  0.86358573  0.99850891  0.13541642    -0.23400
C1629       C  0.83880651  0.52753911  0.12811053     0.19600
C1630       C  0.80784011  0.52729640  0.15158268     0.24600
C1631       C  0.80024786  0.99852785  0.18330695    -0.23400
C1632       C  0.82837850  0.97939827  0.19985088     0.19500
F1633       F  0.82525302  0.95951986  0.23792538    -0.13300
F1634       F  0.88531685  0.95894631  0.19157576    -0.15700
F1635       F  0.78432628  0.55188679  0.14159904    -0.18700
F1636       F  0.84377825  0.55178619  0.09516349    -0.13300
C1637       C  0.50190604  0.87516022  0.18592536     0.24700
C1638       C  0.99056710  0.87259314  0.13783234    -0.23400
C1639       C  0.98247310  0.83930120  0.11998332     0.19600
C1640       C  0.98659799  0.80938200  0.14631732     0.24600
C1641       C  0.00004730  0.81112634  0.19073105    -0.23400
C1642       C  0.50740303  0.84463389  0.21148244     0.19500
F1643       F  0.51993253  0.84755741  0.25483289    -0.13300
F1644       F  0.51087493  0.90610837  0.20465392    -0.15700
F1645       F  0.97893601  0.77852600  0.12696590    -0.15700
F1646       F  0.97144571  0.83506885  0.07609339    -0.13300
C1647       C  0.49724470  0.61711373  0.18653880     0.24700
C1648       C  0.98786740  0.62055852  0.13664992    -0.23400
C1649       C  0.97952636  0.65397308  0.12006426     0.19600
C1650       C  0.98505298  0.68366682  0.14681377     0.24600
C1651       C  0.99926956  0.68142168  0.19090216    -0.23400
C1652       C  0.50152711  0.64771165  0.21262084     0.19500
F1653       F  0.51141698  0.64484787  0.25716871    -0.13300
F1654       F  0.50523050  0.58625203  0.20600199    -0.15700
F1655       F  0.97803595  0.71477979  0.12808164    -0.15700
F1656       F  0.96675580  0.65841808  0.07709057    -0.13300
C1657       C  0.65101423  0.85742474  0.98274905     0.24700
C1658       C  0.64910672  0.83586262  0.02132293    -0.23400
C1659       C  0.62108781  0.83763260  0.05056499     0.19600
C1660       C  0.59509652  0.86097356  0.04145057     0.24600
C1661       C  0.59681874  0.88237864  0.00275003    -0.23400
C1662       C  0.62474135  0.88046202  0.97325737     0.19500
F1663       F  0.62596153  0.90001455  0.93470008    -0.13300
F1664       F  0.67781440  0.85533261  0.95376878    -0.15700
F1665       F  0.56865583  0.86339046  0.07097657    -0.15700
F1666       F  0.61891926  0.81652674  0.08761198    -0.13300
C1667       C  0.81880234  0.85679037  0.97319454     0.24700
C1668       C  0.82110235  0.83324239  0.00968958    -0.23400
C1669       C  0.84997364  0.83286185  0.03790738     0.19600
C1670       C  0.87617300  0.85624960  0.03040735     0.24600
C1671       C  0.87355116  0.88069807  0.99500787    -0.23400
C1672       C  0.84485346  0.88070843  0.96610281     0.19500
F1673       F  0.84242040  0.90336614  0.93069165    -0.13300
F1674       F  0.79167647  0.85612899  0.94421462    -0.15700
F1675       F  0.90351489  0.85594609  0.05893264    -0.15700
F1676       F  0.85258037  0.80983124  0.07287884    -0.13300
C1677       C  0.87385654  0.63178443  0.03332238     0.24700
C1678       C  0.87180740  0.61016869  0.99467585    -0.23400
C1679       C  0.84311864  0.61117347  0.96590315     0.19600
C1680       C  0.81694260  0.63428139  0.97542863     0.24600
C1681       C  0.81893074  0.65557119  0.01441123    -0.23400
C1682       C  0.84749171  0.65439814  0.04321999     0.19500
F1683       F  0.84991363  0.67544129  0.08051951    -0.13300
F1684       F  0.90077650  0.62982237  0.06250743    -0.15700
F1685       F  0.79015563  0.63681625  0.94608200    -0.15700
F1686       F  0.84072946  0.59023330  0.92848738    -0.13300
C1687       C  0.59286101  0.63145847  0.04259844     0.24700
C1688       C  0.59418439  0.60961508  0.00404805    -0.23400
C1689       C  0.62083173  0.61243756  0.97272142     0.19600
C1690       C  0.64655506  0.63649227  0.98045476     0.24600
C1691       C  0.64606179  0.65725109  0.02003024    -0.23400
C1692       C  0.61907839  0.65484345  0.05098482     0.19500
F1693       F  0.61825022  0.67512829  0.08912026    -0.13300
F1694       F  0.56655217  0.62961128  0.07242859    -0.15700
F1695       F  0.67155808  0.64019057  0.94899826    -0.15700
F1696       F  0.62123071  0.59272447  0.93405559    -0.13300
C1697       C  0.85078344  0.96978963  0.82981423     0.24700
C1698       C  0.86606446  0.49751751  0.83921434    -0.23400
C1699       C  0.85547784  0.52766384  0.81601435     0.19600
C1700       C  0.82273971  0.52954992  0.79600370     0.24600
C1701       C  0.80409045  0.00320228  0.79664507    -0.23400
C1702       C  0.81866039  0.97128283  0.80867047     0.19500
F1703       F  0.80126179  0.94146588  0.80088664    -0.13300
F1704       F  0.86328057  0.93859625  0.84300329    -0.15700
F1705       F  0.81265256  0.55942750  0.77558736    -0.15700
F1706       F  0.87613745  0.55579785  0.81470052    -0.13300
C1707       C  0.60958608  0.00659147  0.80398835     0.24700
C1708       C  0.60517425  0.48950154  0.84643801    -0.23400
C1709       C  0.63561751  0.47481588  0.86350588     0.19600
C1710       C  0.66609727  0.47687762  0.83904730     0.24600
C1711       C  0.67212623  0.99974820  0.80138200    -0.23400
C1712       C  0.64063198  0.00821058  0.77990548     0.19500
F1713       F  0.63956061  0.01739690  0.73501514    -0.13300
F1714       F  0.58077908  0.01803251  0.78327202    -0.15700
F1715       F  0.69323492  0.45897824  0.85527039    -0.15700
F1716       F  0.63607257  0.45797427  0.90428845    -0.13300
C1717       C  0.48626492  0.68152987  0.83469012     0.24700
C1718       C  0.99983764  0.68139862  0.79166824    -0.23400
C1719       C  0.00928420  0.64832718  0.77459627     0.19600
C1720       C  0.00413595  0.61800189  0.80045462     0.24600
C1721       C  0.98815606  0.61951724  0.84337804    -0.23400
C1722       C  0.48094021  0.65172603  0.86122471     0.19500
F1723       F  0.46661504  0.65602029  0.90312002    -0.13300
F1724       F  0.47616920  0.71235946  0.85189318    -0.15700
F1725       F  0.01609761  0.58741419  0.78417243    -0.15700
F1726       F  0.02317434  0.64509617  0.73229381    -0.13300
C1727       C  0.99735118  0.87491757  0.79685270     0.24700
C1728       C  0.98706510  0.87235446  0.84294456    -0.23400
C1729       C  0.48118715  0.83823464  0.86326400     0.19600
C1730       C  0.48707306  0.80815874  0.83718286     0.24600
C1731       C  0.99756858  0.81140969  0.78866373    -0.23400
C1732       C  0.00195879  0.84490238  0.76987189     0.19500
F1733       F  0.01104612  0.84868407  0.72530123    -0.13300
F1734       F  0.00404015  0.90631490  0.77812202    -0.15700
F1735       F  0.48362523  0.77701727  0.85770921    -0.15700
F1736       F  0.47002927  0.83399370  0.90687555    -0.13300
C1737       C  0.90410574  0.71227661  0.63581105     0.24700
C1738       C  0.88097356  0.73982614  0.64142915    -0.23400
C1739       C  0.89006052  0.76760101  0.67022888     0.19600
C1740       C  0.92219843  0.76851293  0.69149335     0.24600
C1741       C  0.94579781  0.74167051  0.68423464    -0.23400
C1742       C  0.93607636  0.71308489  0.65726028     0.19500
F1743       F  0.95770612  0.68606878  0.65136466    -0.13300
F1744       F  0.89612018  0.68505906  0.60815334    -0.15700
F1745       F  0.93102393  0.79663706  0.71695684    -0.15700
F1746       F  0.86887234  0.79509218  0.67485140    -0.13300
C1747       C  0.63850133  0.75792492  0.67877858     0.24700
C1748       C  0.64019906  0.74443494  0.63415785    -0.23400
C1749       C  0.61044018  0.72956804  0.61513645     0.19600
C1750       C  0.57957115  0.73012183  0.63869934     0.24600
C1751       C  0.57684008  0.74621577  0.68217835    -0.23400
C1752       C  0.60752334  0.75829670  0.70274722     0.19500
F1753       F  0.60796444  0.77019607  0.74656970    -0.13300
F1754       F  0.66664877  0.77153028  0.69896622    -0.15700
F1755       F  0.55291917  0.71337146  0.61902969    -0.15700
F1756       F  0.61115448  0.71370214  0.57343890    -0.13300
C1757       C  0.74587130  0.63053012  0.68724786     0.24700
C1758       C  0.75751977  0.62841555  0.64169160    -0.23400
C1759       C  0.76536447  0.59513316  0.62406868     0.19600
C1760       C  0.75912714  0.56509443  0.64942013     0.24600
C1761       C  0.74509171  0.56692217  0.69335052    -0.23400
C1762       C  0.73950178  0.60015985  0.71263029     0.19500
F1763       F  0.72798155  0.60335053  0.75625236    -0.13300
F1764       F  0.73983789  0.66181007  0.70699822    -0.15700
F1765       F  0.76535957  0.53402538  0.62965018    -0.15700
F1766       F  0.77878938  0.59125259  0.58156043    -0.13300
C1767       C  0.76362122  0.93748725  0.64961038     0.24700
C1768       C  0.74992762  0.93645478  0.69383024    -0.23400
C1769       C  0.74407938  0.90334875  0.71333093     0.19600
C1770       C  0.74937336  0.87253301  0.68802619     0.24600
C1771       C  0.76150237  0.87369264  0.64268288    -0.23400
C1772       C  0.76952555  0.90690022  0.62463173     0.19500
F1773       F  0.78231329  0.91029899  0.58171650    -0.13300
F1774       F  0.76970353  0.96823036  0.62907332    -0.15700
F1775       F  0.74122768  0.84176314  0.70747429    -0.15700
F1776       F  0.73295364  0.90068017  0.75717267    -0.13300
C1777       C  0.92037932  0.59912124  0.48461650     0.24700
C1778       C  0.92167459  0.58518632  0.52902304    -0.23400
C1779       C  0.89693286  0.59389207  0.56124877     0.19600
C1780       C  0.87163086  0.61748443  0.54971118     0.24600
C1781       C  0.87059291  0.63199268  0.50564257    -0.23400
C1782       C  0.89471106  0.62238078  0.47282118     0.19500
F1783       F  0.89304048  0.63498355  0.42948249    -0.13300
F1784       F  0.94379448  0.58982887  0.45285235    -0.15700
F1785       F  0.84878440  0.62720016  0.58198509    -0.15700
F1786       F  0.89760533  0.57979487  0.60385676    -0.13300
C1787       C  0.61770093  0.64125823  0.48106082     0.24700
C1788       C  0.64715799  0.64051931  0.50837282    -0.23400
C1789       C  0.64996651  0.61641011  0.54428152     0.19600
C1790       C  0.62338668  0.59353683  0.55294550     0.24600
C1791       C  0.59410445  0.59422816  0.52534687    -0.23400
C1792       C  0.59146875  0.61790296  0.48918263     0.19500
F1793       F  0.56418707  0.61713785  0.46050920    -0.13300
F1794       F  0.61502223  0.66357849  0.44532736    -0.15700
F1795       F  0.62647412  0.57004010  0.58733405    -0.15700
F1796       F  0.67821722  0.61529064  0.57119488    -0.13300
C1797       C  0.60058796  0.89279856  0.48649155     0.24700
C1798       C  0.60393259  0.91648279  0.52277147    -0.23400
C1799       C  0.63379464  0.91697637  0.54933496     0.19600
C1800       C  0.65973926  0.89334694  0.54025914     0.24600
C1801       C  0.65563413  0.86858167  0.50516919    -0.23400
C1802       C  0.62609325  0.86875972  0.47816415     0.19500
F1803       F  0.62227688  0.84610399  0.44303955    -0.13300
F1804       F  0.57270938  0.89325860  0.45888033    -0.15700
F1805       F  0.68823717  0.89382258  0.56673124    -0.15700
F1806       F  0.63756016  0.94009461  0.58421399    -0.13300
C1807       C  0.87776677  0.88109239  0.55326283     0.24700
C1808       C  0.87973348  0.85795331  0.51605625    -0.23400
C1809       C  0.90813171  0.85848127  0.48729810     0.19600
C1810       C  0.93353892  0.88308435  0.49416243     0.24600
C1811       C  0.93125371  0.90673199  0.53067159    -0.23400
C1812       C  0.90367163  0.90512760  0.56085571     0.19500
F1813       F  0.90172293  0.92720228  0.59713004    -0.13300
F1814       F  0.85107584  0.88003468  0.58249683    -0.15700
F1815       F  0.95979584  0.88468135  0.46429888    -0.15700
F1816       F  0.91050196  0.83609921  0.45142887    -0.13300
C1817       C  0.61407425  0.77060366  0.35869546     0.24700
C1818       C  0.64274579  0.75158743  0.34470440    -0.23400
C1819       C  0.63975410  0.73109394  0.30504709     0.19600
C1820       C  0.60853984  0.72890992  0.28103389     0.24600
C1821       C  0.57884362  0.74624434  0.29719397    -0.23400
C1822       C  0.58319721  0.76875969  0.33490335     0.19500
F1823       F  0.55758126  0.78971767  0.34883860    -0.13300
F1824       F  0.61574540  0.79106761  0.39640486    -0.15700
F1825       F  0.60842566  0.71093293  0.24102106    -0.15700
F1826       F  0.66663275  0.71218512  0.29028553    -0.13300
C1827       C  0.88766610  0.76998214  0.30880641     0.24700
C1828       C  0.88145284  0.74601919  0.34423691    -0.23400
C1829       C  0.90664045  0.72121121  0.35407578     0.19600
C1830       C  0.93765589  0.72103956  0.33092197     0.24600
C1831       C  0.94478300  0.74588518  0.29723545    -0.23400
C1832       C  0.91909843  0.76988491  0.28546256     0.19500
F1833       F  0.92509649  0.79439514  0.25318987    -0.13300
F1834       F  0.86429583  0.79467973  0.29867890    -0.15700
F1835       F  0.96093350  0.69640442  0.34166749    -0.15700
F1836       F  0.90136492  0.69719363  0.38713353    -0.13300
C1837       C  0.76998571  0.90979546  0.36970050     0.24700
C1838       C  0.76428930  0.87611761  0.35094720    -0.23400
C1839       C  0.75517680  0.87406726  0.30422244     0.19600
C1840       C  0.75031247  0.90433896  0.27803990     0.24600
C1841       C  0.75326411  0.93767649  0.29800797    -0.23400
C1842       C  0.76433612  0.93991342  0.34364936     0.19500
F1843       F  0.76776003  0.97131966  0.36413030    -0.13300
F1844       F  0.77985900  0.91406825  0.41409185    -0.15700
F1845       F  0.74197207  0.90102081  0.23298259    -0.15700
F1846       F  0.74933168  0.84284792  0.28415601    -0.13300
C1847       C  0.77264350  0.59581643  0.35966499     0.24700
C1848       C  0.75954221  0.62816955  0.34509825    -0.23400
C1849       C  0.74350263  0.62958531  0.30198946     0.19600
C1850       C  0.73867802  0.59926875  0.27578115     0.24600
C1851       C  0.74884335  0.56632580  0.29244283    -0.23400
C1852       C  0.76770752  0.56553346  0.33353596     0.19500
F1853       F  0.78085537  0.53546346  0.34945149    -0.13300
F1854       F  0.79006038  0.59324895  0.39988037    -0.15700
F1855       F  0.72437377  0.60241405  0.23351396    -0.15700
F1856       F  0.73111747  0.66003236  0.28586284    -0.13300
loop_ 
_geom_bond_atom_site_label_1 
_geom_bond_atom_site_label_2 
_geom_bond_distance 
_geom_bond_site_symmetry_2 
_ccdc_geom_bond_type 
O1           C12   1.307       .  A
O1          Eu37   2.549       .  S
O2           C13   1.304       .  A
O2          Eu36   2.528       .  S
O3           C14   1.289       .  A
O3           Eu9   2.461       .  S
O4           C15   1.288       .  A
O4           Eu9   2.442       .  S
O5           C15   1.281       .  A
O5          Eu39   2.405       .  S
O6           C14   1.285       .  A
O6          Eu38   2.437       .  S
O7           C13   1.285       .  A
O7           Eu9   2.420       .  S
O8           C12   1.286       .  A
O8           Eu9   2.421       .  S
Eu9          O19   2.348       .  S
Eu9          O11   2.346       .  S
Eu9          O10   2.340       .  S
Eu9          O17   2.336       .  S
O10         Eu39   2.346       .  S
O10         Eu36   2.367       .  S
O11         Eu37   2.374       .  S
O11         Eu38   2.339       .  S
C12         C456   1.510       .  S
C13         C366   1.500       .  S
C14         C389   1.465       .  S
C15         C396   1.455       .  S
H16          O17   0.956       .  S
O17         Eu38   2.341       .  S
O17         Eu36   2.372       .  S
H18          O19   0.967       .  S
O19         Eu37   2.376       .  S
O19         Eu39   2.353       .  S
O20          C43   1.305       .  A
O20         Eu36   2.539       .  S
O21          C44   1.306       .  A
O21         Eu37   2.538       .  S
O22          C45   1.287       .  A
O22         Eu38   2.427       .  S
O23          C46   1.286       .  A
O23         Eu39   2.428       .  S
O24          C47   1.286       .  A
O24         Eu39   2.423       .  S
O25          C48   1.287       .  A
O25         Eu38   2.432       .  S
O26          C49   1.286       .  A
O26         Eu40   2.432       .  S
O27          C50   1.288       .  A
O27         Eu40   2.451       .  S
O28          C49   1.284       .  A
O28         Eu38   2.422       .  S
O29          C50   1.286       .  A
O29         Eu39   2.436       .  S
O30          C45   1.304       .  A
O30         Eu36   2.531       .  S
O31          C48   1.304       .  A
O31         Eu37   2.536       .  S
O32          C47   1.305       .  A
O32         Eu37   2.533       .  S
O33          C46   1.305       .  A
O33         Eu36   2.536       .  S
O34          C43   1.283       .  A
O34         Eu40   2.417       .  S
O35          C44   1.287       .  A
O35         Eu40   2.432       .  S
Eu36         O54   2.375       .  S
Eu36         O42   2.374       .  S
Eu37         O41   2.385       .  S
Eu37         O52   2.379       .  S
Eu38         O52   2.345       .  S
Eu38         O42   2.350       .  S
Eu39         O41   2.340       .  S
Eu39         O54   2.338       .  S
Eu40         O41   2.348       .  S
Eu40         O52   2.353       .  S
Eu40         O54   2.346       .  S
Eu40         O42   2.345       .  S
C43         C379   1.508       .  S
C44         C446   1.508       .  S
C45         C346   1.493       .  S
C46         C356   1.498       .  S
C47         C426   1.499       .  S
C48         C436   1.503       .  S
C49         C416   1.456       .  S
C50         C409   1.466       .  S
H51          O52   0.969       .  S
H53          O54   0.962       .  S
N55          H87   1.042       .  S
N55          C59   1.348       .  A
N55         C524   1.350       .  A
N56          C64   1.344       .  A
N56         C991   1.346       .  A
N57          H88   1.042       .  S
N57          C61   1.349       .  A
N57         C526   1.350       .  A
N58          C66   1.345       .  A
N58         C993   1.345       .  A
C59          C67   1.388       .  A
C59          C75   1.407       .  A
C60         N519   1.348       .  A
C60          C76   1.408       .  A
C60          C68   1.388       .  A
C61          C69   1.387       .  A
C61          C78   1.407       .  A
C62         N521   1.352   1_545  A
C62          C77   1.408       .  A
C62          C70   1.385       .  A
C63         N984   1.345       .  A
C63          C75   1.406       .  A
C63          C71   1.388       .  A
C64          C78   1.404       .  A
C64          C72   1.387       .  A
C65         N986   1.344       .  A
C65          C73   1.387       .  A
C65          C76   1.404       .  A
C66          C74   1.386       .  A
C66          C77   1.402       .  A
C67         C532   1.370       .  A
C67          H79   1.082       .  S
C68         C531   1.372   1_545  A
C68          H80   1.082       .  S
C69         C534   1.372       .  A
C69          H81   1.082       .  S
C70         C533   1.372   1_545  A
C70          H82   1.082       .  S
C71        C1000   1.374       .  A
C71          H83   1.082       .  S
C72         C999   1.376       .  A
C72          H84   1.082       .  S
C73        C1002   1.375   1_455  A
C73          H85   1.082       .  S
C74        C1001   1.374       .  A
C74          H86   1.083       .  S
C75         C406   1.472       .  S
C76         C399   1.472       .  S
C77         C386   1.474       .  S
C78         C419   1.474       .  S
O89         C100   1.305       .  A
O89        Eu589   2.534       .  S
O90         C101   1.307       .  A
O90        Eu124   2.546       .  S
O91         C102   1.290       .  A
O91       Eu1025   2.453   1_455  S
O92         C103   1.290       .  A
O92         Eu97   2.465   1_554  S
O93         C103   1.286   1_556  A
O93        Eu127   2.435       .  S
O94         C102   1.283       .  A
O94        Eu126   2.418       .  S
O95         C101   1.283       .  A
O95         Eu97   2.412   1_554  S
O96         C100   1.288       .  A
O96         Eu97   2.435       .  S
Eu97       O1019   2.445   1_556  S
Eu97        O107   2.355       .  S
Eu97         O98   2.336   1_556  S
Eu97       O1027   2.355       .  S
Eu97       O1033   2.354   1_556  S
O98        Eu127   2.344   1_554  S
O98        Eu124   2.375       .  S
O99        Eu126   2.341       .  S
O99       Eu1025   2.353   1_455  S
O99       Eu1517   2.375   1_455  S
C100        C336   1.508       .  S
C101        C246   1.505       .  S
C102        C269   1.466   1_556  S
C103        C279   1.473       .  S
H104        O105   0.960       .  S
O105       Eu126   2.345   1_554  S
O105      Eu1025   2.350   1_454  S
O105      Eu1052   2.365   1_455  S
H106        O107   0.973       .  S
O107       Eu127   2.351       .  S
O107       Eu589   2.396       .  S
O108        C131   1.303       .  A
O108       Eu588   2.526   1_545  S
O109        C132   1.305       .  A
O109       Eu125   2.533   1_545  S
O110        C133   1.286       .  A
O110       Eu126   2.431   1_554  S
O111        C134   1.288       .  A
O111       Eu127   2.437   1_554  S
O112        C135   1.290       .  A
O112       Eu591   2.444       .  S
O113        C136   1.286       .  A
O113       Eu590   2.428       .  S
O114        C137   1.283   1_556  A
O114      Eu1056   2.419   1_455  S
O115        C138   1.289       .  A
O115       Eu128   2.453   1_554  S
O116        C137   1.282   1_556  A
O116       Eu590   2.412   1_545  S
O117        C138   1.287   1_556  A
O117       Eu591   2.441   1_545  S
O118        C133   1.306       .  A
O118      Eu1052   2.545   1_455  S
O119        C136   1.306       .  A
O119      Eu1053   2.548   1_455  S
O120        C135   1.302       .  A
O120       Eu125   2.525       .  S
O121        C134   1.306       .  A
O121       Eu124   2.545       .  S
O122        C131   1.290       .  A
O122       Eu128   2.449   1_554  S
O123        C132   1.292       .  A
O123       Eu128   2.460       .  S
Eu124       O572   2.537       .  S
Eu124      O1046   2.550       .  S
Eu124      O1033   2.367       .  S
Eu124       O606   2.376       .  S
Eu124      O1522   2.369       .  S
Eu125       O553   2.549       .  S
Eu125      O1047   2.552       .  S
Eu125       O129   2.393   1_565  S
Eu125      O1491   2.370       .  S
Eu125       O571   2.389       .  S
Eu125      O1068   2.383   1_565  S
Eu126       O577   2.423       .  S
Eu126       O580   2.419       .  S
Eu126       O604   2.348       .  S
Eu126       O594   2.333   1_556  S
Eu127       O576   2.443       .  S
Eu127       O581   2.432       .  S
Eu127       O593   2.350       .  S
Eu127       O606   2.350   1_556  S
Eu128      O1042   2.442   1_556  S
Eu128       O129   2.357       .  S
Eu128       O142   2.349   1_556  S
Eu128      O1068   2.360       .  S
Eu128      O1058   2.342   1_556  S
O129       Eu591   2.352   1_545  S
O130      Eu1516   2.363   1_445  S
O130       Eu590   2.345   1_544  S
O130      Eu1056   2.340   1_454  S
C131        C256   1.509       .  S
C132        C329   1.514       .  S
C133        C226   1.507       .  S
C134        C236   1.502       .  S
C135        C306   1.493       .  S
C136        C316   1.508       .  S
C137        C296   1.444       .  S
C138        C286   1.468       .  S
H139        O140   0.969       .  S
O140      Eu1053   2.372   1_445  S
O140       Eu590   2.348   1_545  S
O140      Eu1056   2.352   1_455  S
H141        O142   0.955       .  S
O142       Eu588   2.378   1_545  S
O142       Eu591   2.350   1_544  S
N143        H175   1.042       .  S
N143        C148   1.350       .  A
N143        C147   1.351       .  A
N144        C151   1.347       .  A
N144        C152   1.345       .  A
N145        H176   1.042       .  S
N145        C150   1.349       .  A
N145        C149   1.348       .  A
N146        C153   1.346       .  A
N146        C154   1.347       .  A
C147        C155   1.385       .  A
C147        C163   1.407       .  A
C148        C164   1.409       .  A
C148        C156   1.388       .  A
C149        C157   1.386       .  A
C149        C166   1.403       .  A
C150        C165   1.411       .  A
C150        C158   1.390       .  A
C151        C163   1.404       .  A
C151        C159   1.386       .  A
C152        C166   1.403       .  A
C152        C160   1.387       .  A
C153        C161   1.386       .  A
C153        C164   1.406       .  A
C154        C162   1.387       .  A
C154        C165   1.409       .  A
C155        C156   1.373       .  A
C155        H167   1.082   1_554  S
C156        H168   1.082   1_554  S
C157        C158   1.371       .  A
C157        H169   1.083   1_554  S
C158        H170   1.082   1_554  S
C159        C160   1.373       .  A
C159        H171   1.082       .  S
C160        H172   1.083       .  S
C161        C162   1.376       .  A
C161        H173   1.082       .  S
C162        H174   1.082       .  S
C163        C289   1.480       .  S
C164        C276   1.477       .  S
C165        C266   1.480       .  S
C166        C299   1.467       .  S
C177        C178   1.537       .  S
C177        C181   1.531       .  S
C177       C1111   1.555       .  S
C177        C429   1.554       .  S
C178        H185   1.084       .  S
C178       C1107   1.364       .  D
C179        C180   1.568       .  S
C179       C1106   1.369       .  D
C179        C259   1.513       .  S
C180        C184   1.540       .  S
C180        C182   1.562       .  S
C180        H186   1.109       .  S
C181        H187   1.086       .  S
C181       C1110   1.367       .  D
C182       C1109   1.364       .  D
C182        C249   1.507       .  S
C183       C1105   1.557       .  S
C183        H188   1.081       .  S
C183        C184   1.377       .  D
C184        C439   1.507       .  S
C189        C190   1.536       .  S
C189        C195   1.560       .  S
C189        C657   1.528       .  S
C189        C229   1.560       .  S
C190        H197   1.083       .  S
C190        C191   1.367       .  D
C191        C192   1.565       .  S
C191        C449   1.515       .  S
C192        C196   1.544       .  S
C192        C658   1.563       .  S
C192        H198   1.109       .  S
C193        C653   1.530       .  S
C193        H199   1.086       .  S
C193        C194   1.366       .  D
C194        C656   1.564       .  S
C194        C459   1.510       .  S
C195        H200   1.084       .  S
C195        C196   1.381       .  D
C196        C239   1.512       .  S
C201        C202   1.536       .  S
C201        C205   1.528       .  S
C201       C1135   1.556       .  S
C201        C359   1.553       .  S
C202        H209   1.083       .  S
C202       C1131   1.365       .  D
C203        C204   1.563       .  S
C203       C1130   1.365       .  D
C203        C339   1.511       .  S
C204        C208   1.540       .  S
C204        C206   1.564       .  S
C204        H210   1.108       .  S
C205        H211   1.086       .  S
C205       C1134   1.366       .  D
C206       C1133   1.366       .  D
C206        C326   1.517       .  S
C207       C1129   1.559       .  S
C207        H212   1.084       .  S
C207        C208   1.379       .  D
C208        C349   1.503       .  S
C213        C219   1.557       .  S
C213        C217   1.526       .  S
C213        C678   1.538       .  S
C213        C319   1.550       .  S
C214        C677   1.535       .  S
C214        H221   1.084       .  S
C214        C215   1.369       .  D
C215        C680   1.559       .  S
C215        C369   1.509       .  S
C216        C220   1.537       .  S
C216        C218   1.555       .  S
C216        C679   1.560       .  S
C216        H222   1.109       .  S
C217        H223   1.087       .  S
C217        C218   1.361       .  D
C218        C376   1.496       .  S
C219        H224   1.084       .  S
C219        C220   1.377       .  D
C220        C309   1.501       .  S
C225        C230   1.408       .  A
C225        C690   1.413       .  A
C225        F232   1.358       .  S
C226        C227   1.405       .  A
C226        C689   1.414       .  A
C227        C228   1.415       .  A
C227        F234   1.358       .  S
C228        C229   1.427       .  A
C228        F233   1.356       .  S
C229        C694   1.412       .  A
C230        C693   1.413       .  A
C230        F231   1.358       .  S
C235        C236   1.408       .  A
C235        C240   1.416       .  A
C235        F242   1.357       .  S
C236        C701   1.413       .  A
C237        C238   1.403       .  A
C237        C700   1.415       .  A
C237        F244   1.359       .  S
C238        C703   1.406   1_545  A
C238        F243   1.358       .  S
C239        C240   1.416       .  A
C239        C702   1.408       .  A
C240        F241   1.357       .  S
C245        C250   1.413   1_655  A
C245       C1174   1.409       .  A
C245        F252   1.358   1_655  S
C246        C247   1.422       .  A
C246       C1173   1.405       .  A
C247        C248   1.403       .  A
C247        F254   1.358       .  S
C248        C249   1.401       .  A
C248        F253   1.353       .  S
C249       C1178   1.418       .  A
C250       C1177   1.421   1_455  A
C250        F251   1.358       .  S
C255        C260   1.417       .  A
C255       C1184   1.411       .  A
C255        F262   1.357       .  S
C256        C257   1.417       .  A
C256       C1183   1.410       .  A
C257        C258   1.401       .  A
C257        F264   1.357       .  S
C258        C259   1.401       .  A
C258        F263   1.352       .  S
C259       C1188   1.420       .  A
C260       C1187   1.418       .  A
C260        F261   1.358   1_655  S
C265        C266   1.404       .  A
C265        C270   1.391   1_554  A
C265        F272   1.359   1_554  S
C266        C267   1.405       .  A
C267        C268   1.393       .  A
C267        F274   1.357       .  S
C268        C269   1.404       .  A
C268        F273   1.358       .  S
C269        C270   1.405   1_554  A
C270        F271   1.353       .  S
C275        C276   1.402       .  A
C275        C280   1.394   1_554  A
C275        F282   1.358   1_554  S
C276        C277   1.403       .  A
C277        C278   1.399       .  A
C277        F284   1.358       .  S
C278        C279   1.407       .  A
C278        F283   1.357       .  S
C279        C280   1.404   1_554  A
C280        F281   1.353       .  S
C285        C286   1.406       .  A
C285        C290   1.396       .  A
C285        F292   1.356       .  S
C286        C287   1.403   1_554  A
C287        C288   1.394       .  A
C287        F294   1.358       .  S
C288        C289   1.405   1_556  A
C288        F293   1.357       .  S
C289        C290   1.405       .  A
C290        F291   1.359       .  S
C295        C296   1.401       .  A
C295        C300   1.388       .  A
C295        F302   1.359       .  S
C296        C297   1.400   1_554  A
C297        C298   1.389       .  A
C297        F304   1.359       .  S
C298        C299   1.404   1_556  A
C298        F303   1.358       .  S
C299        C300   1.403       .  A
C300        F301   1.358       .  S
C305        C310   1.398       .  A
C305        C770   1.409       .  A
C305        F312   1.354       .  S
C306        C307   1.407   1_565  A
C306        C769   1.408       .  A
C307        C308   1.413       .  A
C307        F314   1.357       .  S
C308        C773   1.413   1_545  A
C308        F313   1.357       .  S
C309        C310   1.404       .  A
C309        C772   1.414       .  A
C310        F311   1.358       .  S
C315        C320   1.412       .  A
C315        C780   1.404       .  A
C315        F322   1.357       .  S
C316        C317   1.415       .  A
C316        C779   1.406   1_565  A
C317        C318   1.401       .  A
C317        F324   1.358       .  S
C318        C783   1.412   1_565  A
C318        F323   1.356       .  S
C319        C320   1.423       .  A
C319        C782   1.411       .  A
C320        F321   1.356       .  S
C325        C330   1.404       .  A
C325       C1254   1.402       .  A
C325        F332   1.353       .  S
C326        C327   1.421       .  A
C326       C1253   1.402       .  A
C327        C328   1.415       .  A
C327        F334   1.358       .  S
C328        C329   1.411       .  A
C328        F333   1.358       .  S
C329       C1258   1.417       .  A
C330       C1257   1.417       .  A
C330        F331   1.358       .  S
C335        C336   1.408       .  A
C335        C340   1.410       .  A
C335        F342   1.357       .  S
C336       C1265   1.420       .  A
C337        C338   1.407       .  A
C337       C1264   1.422       .  A
C337        F344   1.358       .  S
C338       C1267   1.401       .  A
C338        F343   1.353       .  S
C339        C340   1.419       .  A
C339       C1266   1.401       .  A
C340        F341   1.358       .  S
C345        C346   1.413       .  A
C345        C350   1.402       .  A
C345        F352   1.359       .  S
C346        C347   1.405       .  A
C347        C348   1.411       .  A
C347        F354   1.357       .  S
C348        C349   1.414       .  A
C348        F353   1.357       .  S
C349        C350   1.407       .  A
C350        F351   1.358       .  S
C355        C356   1.402       .  A
C355        C360   1.410       .  A
C355        F362   1.357       .  S
C356        C357   1.412       .  A
C357        C358   1.403       .  A
C357        F364   1.358       .  S
C358        C359   1.412       .  A
C358        F363   1.357       .  S
C359        C360   1.425       .  A
C360        F361   1.356       .  S
C365        C366   1.404       .  A
C365        C370   1.407       .  A
C365        F372   1.357       .  S
C366        C367   1.419       .  A
C367        C368   1.403       .  A
C367        F374   1.359       .  S
C368        C369   1.403       .  A
C368        F373   1.353       .  S
C369        C370   1.417       .  A
C370        F371   1.357       .  S
C375        C376   1.395       .  A
C375        C380   1.397       .  A
C375        F382   1.354       .  S
C376        C377   1.415       .  A
C377        C378   1.411       .  A
C377        F384   1.358       .  S
C378        C379   1.409       .  A
C378        F383   1.357       .  S
C379        C380   1.423       .  A
C380        F381   1.358       .  S
C385        C386   1.403       .  A
C385        C390   1.397       .  A
C385        F392   1.358       .  S
C386        C387   1.400       .  A
C387        C388   1.396       .  A
C387        F394   1.358       .  S
C388        C389   1.404       .  A
C388        F393   1.357       .  S
C389        C390   1.404       .  A
C390        F391   1.355       .  S
C395        C396   1.404       .  A
C395        C400   1.392       .  A
C395        F402   1.358       .  S
C396        C397   1.403       .  A
C397        C398   1.386       .  A
C397        F404   1.359       .  S
C398        C399   1.403       .  A
C398        F403   1.358       .  S
C399        C400   1.405       .  A
C400        F401   1.358       .  S
C405        C406   1.401       .  A
C405        C410   1.390       .  A
C405        F412   1.359       .  S
C406        C407   1.403       .  A
C407        C408   1.396       .  A
C407        F414   1.358       .  S
C408        C409   1.407       .  A
C408        F413   1.358       .  S
C409        C410   1.404       .  A
C410        F411   1.354       .  S
C415        C416   1.404       .  A
C415        C420   1.390       .  A
C415        F422   1.359       .  S
C416        C417   1.402       .  A
C417        C418   1.391       .  A
C417        F424   1.358       .  S
C418        C419   1.405       .  A
C418        F423   1.358       .  S
C419        C420   1.404       .  A
C420        F421   1.358       .  S
C425        C426   1.411       .  A
C425        C430   1.400       .  A
C425        F432   1.355       .  S
C426        C427   1.403       .  A
C427        C428   1.411       .  A
C427        F434   1.358       .  S
C428        C429   1.426       .  A
C428        F433   1.355       .  S
C429        C430   1.412       .  A
C430        F431   1.357       .  S
C435        C436   1.411       .  A
C435        C440   1.419       .  A
C435        F442   1.357       .  S
C436        C437   1.412       .  A
C437        C438   1.396       .  A
C437        F444   1.355       .  S
C438        C439   1.403       .  A
C438        F443   1.358       .  S
C439        C440   1.416       .  A
C440        F441   1.357       .  S
C445        C446   1.419       .  A
C445        C450   1.406       .  A
C445        F452   1.359       .  S
C446        C447   1.406       .  A
C447        C448   1.409       .  A
C447        F454   1.357       .  S
C448        C449   1.419       .  A
C448        F453   1.357       .  S
C449        C450   1.404       .  A
C450        F451   1.352       .  S
C455        C456   1.421       .  A
C455        C460   1.405       .  A
C455        F462   1.359       .  S
C456        C457   1.407       .  A
C457        C458   1.412       .  A
C457        F464   1.357       .  S
C458        C459   1.417       .  A
C458        F463   1.357       .  S
C459        C460   1.401       .  A
C460        F461   1.352       .  S
O465        C476   1.305       .  A
O465       Eu501   2.537       .  S
O466        C477   1.306       .  A
O466       Eu500   2.539       .  S
O467        C478   1.288       .  A
O467       Eu473   2.453       .  S
O468        C479   1.287       .  A
O468       Eu473   2.439       .  S
O469        C479   1.286       .  A
O469       Eu503   2.436       .  S
O470        C478   1.286       .  A
O470       Eu502   2.439       .  S
O471        C477   1.288       .  A
O471       Eu473   2.439       .  S
O472        C476   1.287       .  A
O472       Eu473   2.428       .  S
Eu473       O483   2.356       .  S
Eu473       O475   2.353       .  S
Eu473       O474   2.342       .  S
Eu473       O481   2.339       .  S
O474       Eu503   2.339       .  S
O474       Eu500   2.362       .  S
O475       Eu501   2.383       .  S
O475       Eu502   2.350       .  S
C476        C920   1.505       .  S
C477        C830   1.508       .  S
C478        C853   1.461       .  S
C479        C860   1.462       .  S
H480        O481   0.956       .  S
O481       Eu502   2.351       .  S
O481       Eu500   2.374       .  S
H482        O483   0.968       .  S
O483       Eu501   2.381       .  S
O483       Eu503   2.354       .  S
O484        C507   1.307       .  A
O484       Eu500   2.547       .  S
O485        C508   1.304       .  A
O485       Eu501   2.526       .  S
O486        C509   1.288       .  A
O486       Eu502   2.432       .  S
O487        C510   1.286       .  A
O487       Eu503   2.426       .  S
O488        C511   1.282       .  A
O488       Eu503   2.404       .  S
O489        C512   1.289       .  A
O489       Eu502   2.442       .  S
O490        C513   1.285       .  A
O490       Eu504   2.435       .  S
O491        C514   1.284       .  A
O491       Eu504   2.430       .  S
O492        C513   1.286       .  A
O492       Eu502   2.441       .  S
O493        C514   1.289       .  A
O493       Eu503   2.455       .  S
O494        C509   1.304       .  A
O494       Eu500   2.530       .  S
O495        C512   1.306       .  A
O495       Eu501   2.544       .  S
O496        C511   1.307       .  A
O496       Eu501   2.552       .  S
O497        C510   1.305       .  A
O497       Eu500   2.541       .  S
O498        C507   1.285       .  A
O498       Eu504   2.419       .  S
O499        C508   1.287       .  A
O499       Eu504   2.434       .  S
Eu500       O518   2.367       .  S
Eu500       O506   2.382       .  S
Eu501       O505   2.382       .  S
Eu501       O516   2.384       .  S
Eu502       O516   2.345       .  S
Eu502       O506   2.350       .  S
Eu503       O505   2.345       .  S
Eu503       O518   2.334       .  S
Eu504       O505   2.352       .  S
Eu504       O516   2.347       .  S
Eu504       O518   2.352       .  S
Eu504       O506   2.343       .  S
C507        C843   1.508       .  S
C508        C910   1.506       .  S
C509        C810   1.496       .  S
C510        C820   1.501       .  S
C511        C890   1.506       .  S
C512        C900   1.503       .  S
C513        C880   1.462       .  S
C514        C873   1.462       .  S
H515        O516   0.968       .  S
H517        O518   0.961       .  S
N519        H551   1.041       .  S
N519        C523   1.349   1_545  A
N520       C1455   1.347       .  A
N520        C528   1.347       .  A
N521        H552   1.041   1_565  S
N521        C525   1.350       .  A
N522       C1457   1.346       .  A
N522        C530   1.345       .  A
C523        C531   1.386       .  A
C523        C539   1.405       .  A
C524        C540   1.406       .  A
C524        C532   1.386       .  A
C525        C533   1.387       .  A
C525        C542   1.410       .  A
C526        C541   1.407       .  A
C526        C534   1.388       .  A
C527       N1448   1.347       .  A
C527        C539   1.406       .  A
C527        C535   1.386       .  A
C528        C542   1.408       .  A
C528        C536   1.387       .  A
C529       N1450   1.347       .  A
C529        C537   1.385       .  A
C529        C540   1.404       .  A
C530        C538   1.386       .  A
C530        C541   1.405       .  A
C531        H543   1.082       .  S
C532        H544   1.082       .  S
C533        H545   1.082       .  S
C534        H546   1.082       .  S
C535       C1464   1.374       .  A
C535        H547   1.082       .  S
C536       C1463   1.375       .  A
C536        H548   1.082       .  S
C537       C1466   1.376   1_455  A
C537        H549   1.082       .  S
C538       C1465   1.377       .  A
C538        H550   1.083       .  S
C539        C870   1.474       .  S
C540        C863   1.479       .  S
C541        C850   1.471       .  S
C542        C883   1.477       .  S
O553        C564   1.307       .  A
O554        C565   1.305       .  A
O554       Eu588   2.535       .  S
O555        C566   1.286       .  A
O555      Eu1489   2.441   1_454  S
O556        C567   1.289       .  A
O556       Eu561   2.451   1_554  S
O557        C567   1.286   1_556  A
O557       Eu591   2.438       .  S
O558        C566   1.285       .  A
O558       Eu590   2.434   1_554  S
O559        C565   1.287       .  A
O559       Eu561   2.434   1_554  S
O560        C564   1.289       .  A
O560       Eu561   2.444       .  S
Eu561      O1483   2.435       .  S
Eu561       O571   2.350       .  S
Eu561      O1491   2.352       .  S
Eu561       O562   2.341   1_556  S
Eu561      O1497   2.354   1_556  S
O562       Eu591   2.348   1_554  S
O562       Eu588   2.373       .  S
O563      Eu1489   2.353   1_455  S
O563      Eu1053   2.383   1_455  S
O563       Eu590   2.349       .  S
C564        C800   1.519       .  S
C565        C710   1.509       .  S
C566        C733   1.455       .  S
C567        C743   1.472       .  S
H568        O569   0.960       .  S
O569      Eu1489   2.351   1_454  S
O569       Eu590   2.336   1_554  S
O569      Eu1516   2.370   1_455  S
H570        O571   0.972       .  S
O571       Eu591   2.352       .  S
O572        C595   1.305       .  A
O573        C596   1.307       .  A
O573       Eu589   2.549       .  S
O574        C597   1.287   1_565  A
O574       Eu590   2.433   1_554  S
O575        C598   1.286       .  A
O575       Eu591   2.428   1_554  S
O576        C599   1.289       .  A
O577        C600   1.285       .  A
O578        C601   1.287       .  A
O578      Eu1520   2.447   1_454  S
O579        C602   1.286       .  A
O579       Eu592   2.440       .  S
O580        C601   1.283   1_556  A
O581        C602   1.285       .  A
O582        C597   1.308   1_565  A
O582      Eu1516   2.553   1_455  S
O583        C600   1.304       .  A
O583      Eu1517   2.535   1_455  S
O584        C599   1.303       .  A
O584       Eu589   2.531       .  S
O585        C598   1.308       .  A
O585       Eu588   2.555       .  S
O586        C595   1.287       .  A
O586       Eu592   2.439   1_554  S
O587        C596   1.288       .  A
O587       Eu592   2.436       .  S
Eu588      O1510   2.546       .  S
Eu588      O1497   2.373       .  S
Eu588      O1058   2.369   1_565  S
Eu589      O1511   2.546       .  S
Eu589      O1027   2.377       .  S
Eu589       O593   2.386       .  S
Eu589      O1532   2.372       .  S
Eu592      O1506   2.415       .  S
Eu592       O593   2.349       .  S
Eu592      O1532   2.357       .  S
Eu592       O606   2.337   1_556  S
Eu592      O1522   2.342   1_556  S
O594      Eu1052   2.361   1_455  S
O594      Eu1520   2.337   1_454  S
C595        C720   1.513       .  S
C596        C793   1.513       .  S
C597        C690   1.505       .  S
C598        C700   1.504   1_565  S
C599        C770   1.498       .  S
C600        C780   1.502       .  S
C601        C760   1.458       .  S
C602        C750   1.457   1_556  S
H603        O604   0.969       .  S
O604      Eu1517   2.380   1_455  S
O604      Eu1520   2.353   1_455  S
H605        O606   0.955       .  S
N607        H639   1.041       .  S
N607        C612   1.352       .  A
N607        C611   1.351       .  A
N608        C615   1.347       .  A
N608        C616   1.347       .  A
N609        H640   1.041       .  S
N609        C614   1.350       .  A
N609        C613   1.351       .  A
N610        C617   1.349       .  A
N610        C618   1.348       .  A
C611        C619   1.387       .  A
C611        C627   1.410       .  A
C612        C628   1.411       .  A
C612        C620   1.387       .  A
C613        C621   1.388       .  A
C613        C630   1.411       .  A
C614        C629   1.408       .  A
C614        C622   1.387       .  A
C615        C627   1.405       .  A
C615        C623   1.386       .  A
C616        C630   1.406       .  A
C616        C624   1.387       .  A
C617        C625   1.387       .  A
C617        C628   1.409       .  A
C618        C626   1.385       .  A
C618        C629   1.405       .  A
C619        C620   1.372       .  A
C619        H631   1.082   1_554  S
C620        H632   1.082   1_554  S
C621        C622   1.371       .  A
C621        H633   1.082       .  S
C622        H634   1.082       .  S
C623        C624   1.373       .  A
C623        H635   1.083       .  S
C624        H636   1.083       .  S
C625        C626   1.372       .  A
C625        H637   1.082       .  S
C626        H638   1.083       .  S
C627        C753   1.473       .  S
C628        C740   1.484       .  S
C629        C730   1.473       .  S
C630        C763   1.476       .  S
C641        C642   1.532       .  S
C641       C1575   1.557       .  S
C641        C645   1.520       .  S
C641        C893   1.545       .  S
C642        H649   1.085       .  S
C642       C1571   1.369       .  D
C643        C644   1.564       .  S
C643       C1570   1.365       .  D
C643        C723   1.512       .  S
C644        C648   1.540       .  S
C644        C646   1.560       .  S
C644        H650   1.110       .  S
C645        H651   1.087       .  S
C645       C1574   1.360       .  D
C646       C1573   1.363       .  D
C646        C713   1.506       .  S
C647       C1569   1.562       .  S
C647        H652   1.085       .  S
C647        C648   1.382       .  D
C648        C903   1.507       .  S
C653        C654   1.538   1_545  S
C653        C659   1.557   1_545  S
C653        C693   1.561       .  S
C654        H661   1.081       .  S
C654        C655   1.366       .  D
C655        C656   1.558   1_565  S
C655        C913   1.509       .  S
C656        C660   1.545   1_545  S
C656        H662   1.110       .  S
C657        H663   1.086       .  S
C657        C658   1.366       .  D
C658        C923   1.511       .  S
C659        H664   1.085       .  S
C659        C660   1.382       .  D
C660        C703   1.510       .  S
C665        C666   1.536       .  S
C665       C1599   1.558       .  S
C665        C669   1.531       .  S
C665        C823   1.555       .  S
C666        H673   1.085       .  S
C666       C1595   1.365       .  D
C667        C668   1.565       .  S
C667       C1594   1.367       .  D
C667        C803   1.514       .  S
C668        C672   1.543       .  S
C668        C670   1.565       .  S
C668        H674   1.108       .  S
C669        H675   1.086       .  S
C669       C1598   1.369       .  D
C670       C1597   1.367       .  D
C670        C790   1.520       .  S
C671       C1593   1.553       .  S
C671        H676   1.083       .  S
C671        C672   1.375       .  D
C672        C813   1.502       .  S
C677        C683   1.557       .  S
C677        C681   1.527   1_545  S
C677        C783   1.555       .  S
C678        H685   1.084       .  S
C678        C679   1.371       .  D
C679        C833   1.515       .  S
C680        C684   1.535       .  S
C680        C682   1.565   1_545  S
C680        H686   1.109   1_545  S
C681        H687   1.086       .  S
C681        C682   1.365       .  D
C682        C840   1.510       .  S
C683        H688   1.084       .  S
C683        C684   1.376       .  D
C684        C773   1.497   1_545  S
C689        C694   1.404       .  A
C689        F696   1.358       .  S
C690        C691   1.403   1_545  A
C691        C692   1.413       .  A
C691        F698   1.357       .  S
C692        C693   1.427   1_565  A
C692        F697   1.355       .  S
C694        F695   1.357       .  S
C699        C700   1.409   1_565  A
C699        C704   1.417       .  A
C699        F706   1.357       .  S
C701        C702   1.404       .  A
C701        F708   1.359       .  S
C702        F707   1.358       .  S
C703        C704   1.417       .  A
C704        F705   1.357       .  S
C709       C1638   1.407   1_455  A
C709        C714   1.407       .  A
C709        F716   1.357       .  S
C710       C1637   1.409       .  A
C710        C711   1.420       .  A
C711        C712   1.400       .  A
C711        F718   1.356       .  S
C712        C713   1.397       .  A
C712        F717   1.352       .  S
C713       C1642   1.418       .  A
C714       C1641   1.418       .  A
C714        F715   1.358       .  S
C719       C1648   1.406   1_455  A
C719        C724   1.408       .  A
C719        F726   1.357       .  S
C720       C1647   1.409       .  A
C720        C721   1.421       .  A
C721        C722   1.404       .  A
C721        F728   1.358       .  S
C722        C723   1.400       .  A
C722        F727   1.352       .  S
C723       C1652   1.419       .  A
C724       C1651   1.418   1_455  A
C724        F725   1.357       .  S
C729        C730   1.403   1_556  A
C729        C734   1.391       .  A
C729        F736   1.358       .  S
C730        C731   1.403       .  A
C731        C732   1.396       .  A
C731        F738   1.358       .  S
C732        C733   1.405       .  A
C732        F737   1.359       .  S
C733        C734   1.399   1_554  A
C734        F735   1.357       .  S
C739        C740   1.405   1_556  A
C739        C744   1.395       .  A
C739        F746   1.358       .  S
C740        C741   1.404       .  A
C741        C742   1.395       .  A
C741        F748   1.358       .  S
C742        C743   1.405       .  A
C742        F747   1.355       .  S
C743        C744   1.404   1_554  A
C744        F745   1.354       .  S
C749        C750   1.405       .  A
C749        C754   1.393       .  A
C749        F756   1.358       .  S
C750        C751   1.401   1_554  A
C751        C752   1.395       .  A
C751        F758   1.358       .  S
C752        C753   1.404   1_556  A
C752        F757   1.358       .  S
C753        C754   1.401       .  A
C754        F755   1.358       .  S
C759        C760   1.405       .  A
C759        C764   1.394       .  A
C759        F766   1.358       .  S
C760        C761   1.402   1_554  A
C761        C762   1.392       .  A
C761        F768   1.358       .  S
C762        C763   1.405   1_556  A
C762        F767   1.358       .  S
C763        C764   1.403       .  A
C764        F765   1.358       .  S
C769        C774   1.400       .  A
C769        F776   1.354       .  S
C770        C771   1.409       .  A
C771        C772   1.415       .  A
C771        F778   1.357       .  S
C772        F777   1.357       .  S
C773        C774   1.403       .  A
C774        F775   1.358       .  S
C779        C784   1.415       .  A
C779        F786   1.357       .  S
C780        C781   1.412       .  A
C781        C782   1.399       .  A
C781        F788   1.353       .  S
C782        F787   1.357       .  S
C783        C784   1.425       .  A
C784        F785   1.356       .  S
C789       C1718   1.405       .  A
C789        C794   1.406       .  A
C789        F796   1.353       .  S
C790       C1717   1.403       .  A
C790        C791   1.422       .  A
C791        C792   1.414       .  A
C791        F798   1.357       .  S
C792        C793   1.408       .  A
C792        F797   1.357       .  S
C793       C1722   1.419       .  A
C794       C1721   1.418       .  A
C794        F795   1.359       .  S
C799        C800   1.411       .  A
C799        C804   1.414       .  A
C799        F806   1.357       .  S
C800       C1729   1.422       .  A
C801       C1728   1.419       .  A
C801        C802   1.403       .  A
C801        F808   1.358       .  S
C802       C1731   1.400       .  A
C802        F807   1.353       .  S
C803       C1730   1.401       .  A
C803        C804   1.418       .  A
C804        F805   1.358       .  S
C809        C810   1.413       .  A
C809        C814   1.399       .  A
C809        F816   1.359       .  S
C810        C811   1.408       .  A
C811        C812   1.413       .  A
C811        F818   1.357       .  S
C812        C813   1.413       .  A
C812        F817   1.357       .  S
C813        C814   1.407       .  A
C814        F815   1.358       .  S
C819        C820   1.403       .  A
C819        C824   1.412       .  A
C819        F826   1.357       .  S
C820        C821   1.413       .  A
C821        C822   1.403       .  A
C821        F828   1.359       .  S
C822        C823   1.413       .  A
C822        F827   1.356       .  S
C823        C824   1.425       .  A
C824        F825   1.357       .  S
C829        C830   1.407       .  A
C829        C834   1.410       .  A
C829        F836   1.357       .  S
C830        C831   1.418       .  A
C831        C832   1.406       .  A
C831        F838   1.358       .  S
C832        C833   1.405       .  A
C832        F837   1.353       .  S
C833        C834   1.418       .  A
C834        F835   1.357       .  S
C839        C840   1.399       .  A
C839        C844   1.402       .  A
C839        F846   1.353       .  S
C840        C841   1.421       .  A
C841        C842   1.411       .  A
C841        F848   1.358       .  S
C842        C843   1.407       .  A
C842        F847   1.358       .  S
C843        C844   1.420       .  A
C844        F845   1.358       .  S
C849        C850   1.403       .  A
C849        C854   1.394       .  A
C849        F856   1.358       .  S
C850        C851   1.401       .  A
C851        C852   1.396       .  A
C851        F858   1.358       .  S
C852        C853   1.405       .  A
C852        F857   1.358       .  S
C853        C854   1.401       .  A
C854        F855   1.356       .  S
C859        C860   1.404       .  A
C859        C864   1.398       .  A
C859        F866   1.358       .  S
C860        C861   1.404       .  A
C861        C862   1.390       .  A
C861        F868   1.359       .  S
C862        C863   1.404       .  A
C862        F867   1.358       .  S
C863        C864   1.406       .  A
C864        F865   1.358       .  S
C869        C870   1.402       .  A
C869        C874   1.392       .  A
C869        F876   1.358       .  S
C870        C871   1.404       .  A
C871        C872   1.397       .  A
C871        F878   1.359       .  S
C872        C873   1.407       .  A
C872        F877   1.359       .  S
C873        C874   1.401       .  A
C874        F875   1.357       .  S
C879        C880   1.405       .  A
C879        C884   1.395       .  A
C879        F886   1.358       .  S
C880        C881   1.402       .  A
C881        C882   1.396       .  A
C881        F888   1.358       .  S
C882        C883   1.404       .  A
C882        F887   1.358       .  S
C883        C884   1.403       .  A
C884        F885   1.358       .  S
C889        C890   1.418       .  A
C889        C894   1.396       .  A
C889        F896   1.359       .  S
C890        C891   1.406       .  A
C891        C892   1.413       .  A
C891        F898   1.357       .  S
C892        C893   1.423       .  A
C892        F897   1.357       .  S
C893        C894   1.409       .  A
C894        F895   1.356       .  S
C899        C900   1.411       .  A
C899        C904   1.418       .  A
C899        F906   1.358       .  S
C900        C901   1.410       .  A
C901        C902   1.402       .  A
C901        F908   1.356       .  S
C902        C903   1.403       .  A
C902        F907   1.357       .  S
C903        C904   1.416       .  A
C904        F905   1.358       .  S
C909        C910   1.419       .  A
C909        C914   1.403       .  A
C909        F916   1.359       .  S
C910        C911   1.407       .  A
C911        C912   1.409       .  A
C911        F918   1.357       .  S
C912        C913   1.418       .  A
C912        F917   1.358       .  S
C913        C914   1.401       .  A
C914        F915   1.351       .  S
C919        C920   1.418       .  A
C919        C924   1.402       .  A
C919        F926   1.358       .  S
C920        C921   1.407       .  A
C921        C922   1.411       .  A
C921        F928   1.357       .  S
C922        C923   1.419       .  A
C922        F927   1.358       .  S
C923        C924   1.401       .  A
C924        F925   1.351       .  S
O929        C940   1.307       .  A
O929       Eu965   2.547       .  S
O930        C941   1.304       .  A
O930       Eu964   2.532       .  S
O931        C942   1.285       .  A
O931       Eu937   2.437       .  S
O932        C943   1.284       .  A
O932       Eu937   2.424       .  S
O933        C943   1.285       .  A
O933       Eu967   2.429       .  S
O934        C942   1.285       .  A
O934       Eu966   2.435       .  S
O935        C941   1.286       .  A
O935       Eu937   2.430       .  S
O936        C940   1.287       .  A
O936       Eu937   2.432       .  S
Eu937       O947   2.349       .  S
Eu937       O939   2.344       .  S
Eu937       O938   2.337       .  S
Eu937       O945   2.338       .  S
O938       Eu967   2.336       .  S
O938       Eu964   2.361       .  S
O939       Eu965   2.376       .  S
O939       Eu966   2.343       .  S
C940       C1384   1.508       .  S
C941       C1294   1.506       .  S
C942       C1317   1.454       .  S
C943       C1324   1.456       .  S
H944        O945   0.956       .  S
O945       Eu966   2.347       .  S
O945       Eu964   2.375       .  S
H946        O947   0.967       .  S
O947       Eu965   2.375       .  S
O947       Eu967   2.351       .  S
O948        C971   1.306       .  A
O948       Eu964   2.542       .  S
O949        C972   1.304       .  A
O949       Eu965   2.527       .  S
O950        C973   1.286       .  A
O950       Eu966   2.423       .  S
O951        C974   1.285       .  A
O951       Eu967   2.424       .  S
O952        C975   1.284       .  A
O952       Eu967   2.418       .  S
O953        C976   1.287       .  A
O953       Eu966   2.430       .  S
O954        C977   1.287       .  A
O954       Eu968   2.442       .  S
O955        C978   1.283       .  A
O955       Eu968   2.426       .  S
O956        C977   1.284       .  A
O956       Eu966   2.428       .  S
O957        C978   1.288       .  A
O957       Eu967   2.445       .  S
O958        C973   1.304       .  A
O958       Eu964   2.530       .  S
O959        C976   1.305       .  A
O959       Eu965   2.539       .  S
O960        C975   1.307       .  A
O960       Eu965   2.552       .  S
O961        C974   1.305       .  A
O961       Eu964   2.537       .  S
O962        C971   1.285       .  A
O962       Eu968   2.422       .  S
O963        C972   1.288       .  A
O963       Eu968   2.438       .  S
Eu964       O982   2.377       .  S
Eu964       O970   2.370       .  S
Eu965       O969   2.376       .  S
Eu965       O980   2.396       .  S
Eu966       O980   2.352       .  S
Eu966       O970   2.342       .  S
Eu967       O969   2.336       .  S
Eu967       O982   2.345       .  S
Eu968       O969   2.350       .  S
Eu968       O980   2.355       .  S
Eu968       O982   2.357       .  S
Eu968       O970   2.335       .  S
C971       C1307   1.507       .  S
C972       C1374   1.508       .  S
C973       C1274   1.490       .  S
C974       C1284   1.500       .  S
C975       C1354   1.510       .  S
C976       C1364   1.499       .  S
C977       C1344   1.460       .  S
C978       C1337   1.458       .  S
H979        O980   0.969       .  S
H981        O982   0.962       .  S
N983       H1015   1.041       .  S
N983       C1452   1.345       .  A
N983        C987   1.346       .  A
N984        C992   1.347   1_455  A
N985       H1016   1.041       .  S
N985       C1454   1.349       .  A
N985        C989   1.351       .  A
N986        C994   1.345   1_455  A
C987        C995   1.386       .  A
C987       C1003   1.400       .  A
C988       N1447   1.349       .  A
C988       C1004   1.406       .  A
C988        C996   1.387       .  A
C989        C997   1.388       .  A
C989       C1006   1.409       .  A
C990       N1449   1.351   1_545  A
C990       C1005   1.407       .  A
C990        C998   1.386       .  A
C991       C1003   1.404       .  A
C991        C999   1.385       .  A
C992       C1006   1.404       .  A
C992       C1000   1.385   1_655  A
C993       C1001   1.387       .  A
C993       C1004   1.404       .  A
C994       C1002   1.386       .  A
C994       C1005   1.402       .  A
C995       C1460   1.372       .  A
C995       H1007   1.083       .  S
C996       C1459   1.371   1_545  A
C996       H1008   1.082       .  S
C997       C1462   1.371       .  A
C997       H1009   1.082       .  S
C998       C1461   1.374   1_545  A
C998       H1010   1.082       .  S
C999       H1011   1.082       .  S
C1000      H1012   1.082   1_455  S
C1001      H1013   1.082       .  S
C1002      H1014   1.082       .  S
C1003      C1334   1.468       .  S
C1004      C1327   1.472       .  S
C1005      C1314   1.471       .  S
C1006      C1347   1.476       .  S
O1017      C1028   1.308       .  A
O1017     Eu1517   2.549       .  S
O1018      C1029   1.305       .  A
O1018     Eu1052   2.539       .  S
O1019      C1030   1.287       .  A
O1020      C1031   1.290       .  A
O1020     Eu1025   2.461       .  S
O1021      C1031   1.283       .  A
O1021     Eu1055   2.420       .  S
O1022      C1030   1.286   1_556  A
O1022     Eu1054   2.441       .  S
O1023      C1029   1.288       .  A
O1023     Eu1025   2.439   1_554  S
O1024      C1028   1.288       .  A
O1024     Eu1025   2.438       .  S
Eu1025     O1035   2.354       .  S
Eu1025     O1026   2.343   1_556  S
O1026     Eu1055   2.350   1_554  S
O1026     Eu1052   2.379       .  S
O1027     Eu1054   2.343       .  S
C1028      C1264   1.514       .  S
C1029      C1174   1.510       .  S
C1030      C1197   1.460       .  S
C1031      C1207   1.466   1_556  S
H1032      O1033   0.960       .  S
O1033     Eu1054   2.348   1_554  S
H1034      O1035   0.973       .  S
O1035     Eu1517   2.389       .  S
O1035     Eu1055   2.349       .  S
O1036      C1059   1.310       .  A
O1036     Eu1516   2.564   1_545  S
O1037      C1060   1.303       .  A
O1037     Eu1053   2.523   1_545  S
O1038      C1061   1.284       .  A
O1038     Eu1054   2.417   1_554  S
O1039      C1062   1.292       .  A
O1039     Eu1055   2.461   1_554  S
O1040      C1063   1.289       .  A
O1040     Eu1519   2.447       .  S
O1041      C1064   1.284       .  A
O1041     Eu1518   2.418       .  S
O1042      C1065   1.287       .  A
O1043      C1066   1.286       .  A
O1043     Eu1056   2.437       .  S
O1044      C1065   1.283   1_556  A
O1044     Eu1518   2.423   1_545  S
O1045      C1066   1.287       .  A
O1045     Eu1519   2.444   1_545  S
O1046      C1061   1.307       .  A
O1047      C1064   1.307       .  A
O1048      C1063   1.304       .  A
O1048     Eu1053   2.531       .  S
O1049      C1062   1.302       .  A
O1049     Eu1052   2.521       .  S
O1050      C1059   1.285       .  A
O1050     Eu1056   2.428   1_554  S
O1051      C1060   1.289       .  A
O1051     Eu1056   2.442       .  S
Eu1052     O1500   2.528       .  S
Eu1052     O1534   2.385       .  S
Eu1053     O1481   2.532       .  S
Eu1053     O1499   2.380       .  S
Eu1053     O1057   2.381   1_565  S
Eu1054     O1505   2.428       .  S
Eu1054     O1508   2.440       .  S
Eu1054     O1532   2.342       .  S
Eu1054     O1522   2.343   1_556  S
Eu1055     O1504   2.453       .  S
Eu1055     O1509   2.409       .  S
Eu1055     O1521   2.349       .  S
Eu1055     O1534   2.355   1_556  S
Eu1056     O1057   2.340       .  S
Eu1056     O1070   2.342   1_556  S
O1057     Eu1519   2.348   1_545  S
O1058     Eu1518   2.335   1_544  S
C1059      C1184   1.523       .  S
C1060      C1257   1.506       .  S
C1061      C1154   1.503       .  S
C1062      C1164   1.498       .  S
C1063      C1234   1.491   1_565  S
C1064      C1244   1.511       .  S
C1065      C1224   1.457       .  S
C1066      C1214   1.465   1_556  S
H1067      O1068   0.970       .  S
O1068     Eu1518   2.344   1_545  S
H1069      O1070   0.955       .  S
O1070     Eu1516   2.373   1_545  S
O1070     Eu1519   2.352   1_544  S
N1071      H1103   1.041       .  S
N1071      C1076   1.349       .  A
N1071      C1075   1.350       .  A
N1072      C1079   1.347       .  A
N1072      C1080   1.346       .  A
N1073      H1104   1.042       .  S
N1073      C1078   1.353       .  A
N1073      C1077   1.351       .  A
N1074      C1081   1.346       .  A
N1074      C1082   1.345       .  A
C1075      C1083   1.387   1_554  A
C1075      C1091   1.409       .  A
C1076      C1092   1.408       .  A
C1076      C1084   1.386   1_554  A
C1077      C1085   1.389       .  A
C1077      C1094   1.413       .  A
C1078      C1093   1.409       .  A
C1078      C1086   1.385       .  A
C1079      C1091   1.407       .  A
C1079      C1087   1.386       .  A
C1080      C1094   1.406       .  A
C1080      C1088   1.387       .  A
C1081      C1089   1.387       .  A
C1081      C1092   1.405       .  A
C1082      C1090   1.386       .  A
C1082      C1093   1.402       .  A
C1083      C1084   1.376       .  A
C1083      H1095   1.082       .  S
C1084      H1096   1.082       .  S
C1085      C1086   1.371       .  A
C1085      H1097   1.082       .  S
C1086      H1098   1.082       .  S
C1087      C1088   1.376       .  A
C1087      H1099   1.083       .  S
C1088      H1100   1.083       .  S
C1089      C1090   1.374       .  A
C1089      H1101   1.082       .  S
C1090      H1102   1.083       .  S
C1091      C1217   1.476       .  S
C1092      C1204   1.474       .  S
C1093      C1194   1.477       .  S
C1094      C1227   1.476       .  S
C1105      C1106   1.533       .  S
C1105      C1109   1.524       .  S
C1105      C1357   1.554       .  S
C1106      H1113   1.085       .  S
C1107      C1108   1.567   1_455  S
C1107      C1187   1.514   1_455  S
C1108      C1112   1.543       .  S
C1108      C1110   1.563   1_655  S
C1108      H1114   1.109       .  S
C1109      H1115   1.087       .  S
C1110      C1177   1.514   1_455  S
C1111      H1116   1.084       .  S
C1111      C1112   1.379   1_455  D
C1112      C1367   1.506       .  S
C1117      C1118   1.534       .  S
C1117      C1123   1.557       .  S
C1117      C1585   1.528       .  S
C1117      C1157   1.556       .  S
C1118      H1125   1.084       .  S
C1118      C1119   1.365       .  D
C1119      C1120   1.559       .  S
C1119      C1377   1.503       .  S
C1120      C1124   1.540       .  S
C1120      C1586   1.561       .  S
C1120      H1126   1.109       .  S
C1121      C1581   1.533   1_545  S
C1121      H1127   1.085       .  S
C1121      C1122   1.370       .  D
C1122      C1584   1.566       .  S
C1122      C1387   1.524       .  S
C1123      H1128   1.084       .  S
C1123      C1124   1.378       .  D
C1124      C1167   1.503       .  S
C1129      C1130   1.533       .  S
C1129      C1133   1.530       .  S
C1129      C1287   1.554       .  S
C1130      H1137   1.083       .  S
C1131      C1132   1.563   1_455  S
C1131      C1267   1.514   1_455  S
C1132      C1136   1.542       .  S
C1132      C1134   1.562   1_655  S
C1132      H1138   1.109       .  S
C1133      H1139   1.086       .  S
C1134      C1254   1.512   1_455  S
C1135      H1140   1.085       .  S
C1135      C1136   1.378   1_455  D
C1136      C1277   1.500       .  S
C1141      C1606   1.537       .  S
C1141      C1147   1.565       .  S
C1141      C1145   1.527       .  S
C1141      C1247   1.556       .  S
C1142      C1605   1.535       .  S
C1142      H1149   1.086       .  S
C1142      C1143   1.368       .  D
C1143      C1608   1.562       .  S
C1143      C1297   1.507       .  S
C1144      C1607   1.559       .  S
C1144      C1148   1.531       .  S
C1144      C1146   1.559       .  S
C1144      H1150   1.110       .  S
C1145      H1151   1.086       .  S
C1145      C1146   1.365       .  D
C1146      C1304   1.510       .  S
C1147      H1152   1.084       .  S
C1147      C1148   1.378       .  D
C1148      C1237   1.498       .  S
C1153      C1618   1.412       .  A
C1153      C1158   1.404       .  A
C1153      F1160   1.359       .  S
C1154      C1617   1.415       .  A
C1154      C1155   1.403       .  A
C1155      C1156   1.411       .  A
C1155      F1162   1.357       .  S
C1156      C1157   1.425       .  A
C1156      F1161   1.356       .  S
C1157      C1622   1.413       .  A
C1158      C1621   1.414   1_545  A
C1158      F1159   1.358       .  S
C1163      C1164   1.410       .  A
C1163      C1168   1.415       .  A
C1163      F1170   1.358       .  S
C1164      C1629   1.410       .  A
C1165      C1628   1.415   1_545  A
C1165      C1166   1.402       .  A
C1165      F1172   1.358       .  S
C1166      C1631   1.406   1_545  A
C1166      F1171   1.358       .  S
C1167      C1630   1.405       .  A
C1167      C1168   1.413       .  A
C1168      F1169   1.358       .  S
C1173      C1178   1.407       .  A
C1173      F1180   1.357       .  S
C1174      C1175   1.419       .  A
C1175      C1176   1.403       .  A
C1175      F1182   1.356       .  S
C1176      C1177   1.401       .  A
C1176      F1181   1.354       .  S
C1178      F1179   1.357       .  S
C1183      C1188   1.413       .  A
C1183      F1190   1.358       .  S
C1184      C1185   1.426       .  A
C1185      C1186   1.407       .  A
C1185      F1192   1.358       .  S
C1186      C1187   1.399       .  A
C1186      F1191   1.355       .  S
C1188      F1189   1.358       .  S
C1193      C1194   1.406   1_556  A
C1193      C1198   1.394       .  A
C1193      F1200   1.358       .  S
C1194      C1195   1.402       .  A
C1195      C1196   1.395       .  A
C1195      F1202   1.358       .  S
C1196      C1197   1.405       .  A
C1196      F1201   1.358       .  S
C1197      C1198   1.400   1_554  A
C1198      F1199   1.356       .  S
C1203      C1204   1.404   1_556  A
C1203      C1208   1.396       .  A
C1203      F1210   1.358       .  S
C1204      C1205   1.401       .  A
C1205      C1206   1.392       .  A
C1205      F1212   1.358       .  S
C1206      C1207   1.403       .  A
C1206      F1211   1.356       .  S
C1207      C1208   1.406   1_554  A
C1208      F1209   1.357       .  S
C1213      C1214   1.407       .  A
C1213      C1218   1.395       .  A
C1213      F1220   1.359       .  S
C1214      C1215   1.404   1_554  A
C1215      C1216   1.396       .  A
C1215      F1222   1.358       .  S
C1216      C1217   1.403   1_556  A
C1216      F1221   1.357       .  S
C1217      C1218   1.403       .  A
C1218      F1219   1.358       .  S
C1223      C1224   1.404       .  A
C1223      C1228   1.394       .  A
C1223      F1230   1.358       .  S
C1224      C1225   1.401   1_554  A
C1225      C1226   1.392   1_556  A
C1225      F1232   1.358       .  S
C1226      C1227   1.406       .  A
C1226      F1231   1.358   1_554  S
C1227      C1228   1.404       .  A
C1228      F1229   1.358       .  S
C1233      C1698   1.408       .  A
C1233      C1238   1.405       .  A
C1233      F1240   1.356       .  S
C1234      C1697   1.407   1_545  A
C1234      C1235   1.410       .  A
C1235      C1236   1.413       .  A
C1235      F1242   1.358       .  S
C1236      C1701   1.410       .  A
C1236      F1241   1.358       .  S
C1237      C1700   1.412       .  A
C1237      C1238   1.403       .  A
C1238      F1239   1.357       .  S
C1243      C1708   1.406       .  A
C1243      C1248   1.415       .  A
C1243      F1250   1.357       .  S
C1244      C1707   1.406   1_565  A
C1244      C1245   1.417       .  A
C1245      C1246   1.402       .  A
C1245      F1252   1.358       .  S
C1246      C1711   1.411       .  A
C1246      F1251   1.355       .  S
C1247      C1710   1.410       .  A
C1247      C1248   1.425       .  A
C1248      F1249   1.357       .  S
C1253      C1258   1.404       .  A
C1253      F1260   1.351       .  S
C1254      C1255   1.419   1_655  A
C1255      C1256   1.411       .  A
C1255      F1262   1.358       .  S
C1256      C1257   1.408   1_455  A
C1256      F1261   1.358       .  S
C1258      F1259   1.357       .  S
C1263      C1264   1.409       .  A
C1263      C1268   1.412   1_655  A
C1263      F1270   1.357   1_655  S
C1265      C1266   1.404       .  A
C1265      F1272   1.358       .  S
C1266      F1271   1.352       .  S
C1267      C1268   1.419   1_655  A
C1268      F1269   1.358       .  S
C1273      C1274   1.412       .  A
C1273      C1278   1.402       .  A
C1273      F1280   1.359       .  S
C1274      C1275   1.405       .  A
C1275      C1276   1.409       .  A
C1275      F1282   1.357       .  S
C1276      C1277   1.413       .  A
C1276      F1281   1.357       .  S
C1277      C1278   1.407       .  A
C1278      F1279   1.358       .  S
C1283      C1284   1.402       .  A
C1283      C1288   1.411       .  A
C1283      F1290   1.357       .  S
C1284      C1285   1.413       .  A
C1285      C1286   1.402       .  A
C1285      F1292   1.359       .  S
C1286      C1287   1.412       .  A
C1286      F1291   1.357       .  S
C1287      C1288   1.427       .  A
C1288      F1289   1.356       .  S
C1293      C1294   1.408       .  A
C1293      C1298   1.410       .  A
C1293      F1300   1.357       .  S
C1294      C1295   1.419       .  A
C1295      C1296   1.402       .  A
C1295      F1302   1.358       .  S
C1296      C1297   1.400       .  A
C1296      F1301   1.353       .  S
C1297      C1298   1.417       .  A
C1298      F1299   1.358       .  S
C1303      C1304   1.401       .  A
C1303      C1308   1.402       .  A
C1303      F1310   1.353       .  S
C1304      C1305   1.419       .  A
C1305      C1306   1.409       .  A
C1305      F1312   1.358       .  S
C1306      C1307   1.406       .  A
C1306      F1311   1.357       .  S
C1307      C1308   1.421       .  A
C1308      F1309   1.358       .  S
C1313      C1314   1.404       .  A
C1313      C1318   1.395       .  A
C1313      F1320   1.358       .  S
C1314      C1315   1.401       .  A
C1315      C1316   1.394       .  A
C1315      F1322   1.358       .  S
C1316      C1317   1.403       .  A
C1316      F1321   1.359       .  S
C1317      C1318   1.400       .  A
C1318      F1319   1.357       .  S
C1323      C1324   1.402       .  A
C1323      C1328   1.392       .  A
C1323      F1330   1.358       .  S
C1324      C1325   1.405       .  A
C1325      C1326   1.389       .  A
C1325      F1332   1.359       .  S
C1326      C1327   1.403       .  A
C1326      F1331   1.358       .  S
C1327      C1328   1.405       .  A
C1328      F1329   1.358       .  S
C1333      C1334   1.400       .  A
C1333      C1338   1.390       .  A
C1333      F1340   1.358       .  S
C1334      C1335   1.405       .  A
C1335      C1336   1.394       .  A
C1335      F1342   1.359       .  S
C1336      C1337   1.404       .  A
C1336      F1341   1.359       .  S
C1337      C1338   1.402       .  A
C1338      F1339   1.356       .  S
C1343      C1344   1.405       .  A
C1343      C1348   1.394       .  A
C1343      F1350   1.357       .  S
C1344      C1345   1.401       .  A
C1345      C1346   1.394       .  A
C1345      F1352   1.358       .  S
C1346      C1347   1.405       .  A
C1346      F1351   1.358       .  S
C1347      C1348   1.403       .  A
C1348      F1349   1.358       .  S
C1353      C1354   1.417       .  A
C1353      C1358   1.399       .  A
C1353      F1360   1.357       .  S
C1354      C1355   1.407       .  A
C1355      C1356   1.415       .  A
C1355      F1362   1.357       .  S
C1356      C1357   1.424       .  A
C1356      F1361   1.357       .  S
C1357      C1358   1.412       .  A
C1358      F1359   1.355       .  S
C1363      C1364   1.409       .  A
C1363      C1368   1.417       .  A
C1363      F1370   1.358       .  S
C1364      C1365   1.411       .  A
C1365      C1366   1.399       .  A
C1365      F1372   1.357       .  S
C1366      C1367   1.405       .  A
C1366      F1371   1.358       .  S
C1367      C1368   1.417       .  A
C1368      F1369   1.358       .  S
C1373      C1374   1.421       .  A
C1373      C1378   1.404       .  A
C1373      F1380   1.358       .  S
C1374      C1375   1.409       .  A
C1375      C1376   1.407       .  A
C1375      F1382   1.357       .  S
C1376      C1377   1.414       .  A
C1376      F1381   1.358       .  S
C1377      C1378   1.401       .  A
C1378      F1379   1.354       .  S
C1383      C1384   1.418       .  A
C1383      C1388   1.410       .  A
C1383      F1390   1.359       .  S
C1384      C1385   1.405       .  A
C1385      C1386   1.412       .  A
C1385      F1392   1.357       .  S
C1386      C1387   1.422       .  A
C1386      F1391   1.357       .  S
C1387      C1388   1.408       .  A
C1388      F1389   1.354       .  S
O1393      C1404   1.307       .  A
O1393     Eu1429   2.543       .  S
O1394      C1405   1.302       .  A
O1394     Eu1428   2.517       .  S
O1395      C1406   1.285       .  A
O1395     Eu1401   2.439       .  S
O1396      C1407   1.286       .  A
O1396     Eu1401   2.437       .  S
O1397      C1407   1.286       .  A
O1397     Eu1431   2.441       .  S
O1398      C1406   1.285       .  A
O1398     Eu1430   2.439       .  S
O1399      C1405   1.288       .  A
O1399     Eu1401   2.441       .  S
O1400      C1404   1.287       .  A
O1400     Eu1401   2.429       .  S
Eu1401     O1411   2.354       .  S
Eu1401     O1403   2.353       .  S
Eu1401     O1402   2.337       .  S
Eu1401     O1409   2.336       .  S
O1402     Eu1431   2.338       .  S
O1402     Eu1428   2.367       .  S
O1403     Eu1429   2.384       .  S
O1403     Eu1430   2.342       .  S
C1404      C1848   1.503       .  S
C1405      C1758   1.505       .  S
C1406      C1781   1.455       .  S
C1407      C1788   1.463       .  S
H1408      O1409   0.956       .  S
O1409     Eu1430   2.352       .  S
O1409     Eu1428   2.385       .  S
H1410      O1411   0.968       .  S
O1411     Eu1429   2.380       .  S
O1411     Eu1431   2.339       .  S
O1412      C1435   1.308       .  A
O1412     Eu1428   2.556       .  S
O1413      C1436   1.309       .  A
O1413     Eu1429   2.556       .  S
O1414      C1437   1.288       .  A
O1414     Eu1430   2.435       .  S
O1415      C1438   1.282       .  A
O1415     Eu1431   2.403       .  S
O1416      C1439   1.285       .  A
O1416     Eu1431   2.422       .  S
O1417      C1440   1.291       .  A
O1417     Eu1430   2.456       .  S
O1418      C1441   1.287       .  A
O1418     Eu1432   2.443       .  S
O1419      C1442   1.285       .  A
O1419     Eu1432   2.435       .  S
O1420      C1441   1.285       .  A
O1420     Eu1430   2.431       .  S
O1421      C1442   1.288       .  A
O1421     Eu1431   2.444       .  S
O1422      C1437   1.303       .  A
O1422     Eu1428   2.524       .  S
O1423      C1440   1.302       .  A
O1423     Eu1429   2.522       .  S
O1424      C1439   1.304       .  A
O1424     Eu1429   2.536       .  S
O1425      C1438   1.306       .  A
O1425     Eu1428   2.544       .  S
O1426      C1435   1.285       .  A
O1426     Eu1432   2.426       .  S
O1427      C1436   1.285       .  A
O1427     Eu1432   2.423       .  S
Eu1428     O1446   2.362       .  S
Eu1428     O1434   2.374       .  S
Eu1429     O1433   2.374       .  S
Eu1429     O1444   2.385       .  S
Eu1430     O1444   2.348       .  S
Eu1430     O1434   2.357       .  S
Eu1431     O1433   2.342       .  S
Eu1431     O1446   2.349       .  S
Eu1432     O1433   2.359       .  S
Eu1432     O1444   2.354       .  S
Eu1432     O1446   2.345       .  S
Eu1432     O1434   2.337       .  S
C1435      C1771   1.517       .  S
C1436      C1838   1.515       .  S
C1437      C1738   1.484       .  S
C1438      C1748   1.498       .  S
C1439      C1818   1.499       .  S
C1440      C1828   1.498       .  S
C1441      C1808   1.461       .  S
C1442      C1801   1.464       .  S
H1443      O1444   0.969       .  S
H1445      O1446   0.962       .  S
N1447      H1479   1.042       .  S
N1447      C1451   1.349   1_545  A
N1448      C1456   1.347   1_455  A
N1449      H1480   1.041   1_565  S
N1449      C1453   1.349       .  A
N1450      C1458   1.344   1_455  A
C1451      C1459   1.387       .  A
C1451      C1467   1.406       .  A
C1452      C1468   1.404       .  A
C1452      C1460   1.389       .  A
C1453      C1461   1.388       .  A
C1453      C1470   1.410       .  A
C1454      C1469   1.406       .  A
C1454      C1462   1.387       .  A
C1455      C1467   1.408       .  A
C1455      C1463   1.387       .  A
C1456      C1470   1.407       .  A
C1456      C1464   1.387   1_655  A
C1457      C1465   1.386       .  A
C1457      C1468   1.406       .  A
C1458      C1466   1.387       .  A
C1458      C1469   1.403       .  A
C1459      H1471   1.082       .  S
C1460      H1472   1.082       .  S
C1461      H1473   1.082       .  S
C1462      H1474   1.082       .  S
C1463      H1475   1.082       .  S
C1464      H1476   1.082   1_455  S
C1465      H1477   1.082       .  S
C1466      H1478   1.083       .  S
C1467      C1798   1.475       .  S
C1468      C1791   1.469       .  S
C1469      C1778   1.467       .  S
C1470      C1811   1.475       .  S
O1481      C1492   1.305       .  A
O1482      C1493   1.306       .  A
O1482     Eu1516   2.540       .  S
O1483      C1494   1.286       .  A
O1484      C1495   1.287       .  A
O1484     Eu1489   2.439       .  S
O1485      C1495   1.286       .  A
O1485     Eu1519   2.441       .  S
O1486      C1494   1.284       .  A
O1486     Eu1518   2.426       .  S
O1487      C1493   1.284       .  A
O1487     Eu1489   2.417   1_554  S
O1488      C1492   1.289       .  A
O1488     Eu1489   2.443       .  S
Eu1489     O1499   2.347       .  S
Eu1489     O1490   2.353   1_556  S
O1490     Eu1519   2.355   1_554  S
O1490     Eu1516   2.392       .  S
O1491     Eu1518   2.341       .  S
C1492      C1728   1.509       .  S
C1493      C1638   1.503       .  S
C1494      C1661   1.452   1_556  S
C1495      C1671   1.463       .  S
H1496      O1497   0.960       .  S
O1497     Eu1518   2.349   1_554  S
H1498      O1499   0.975       .  S
O1499     Eu1519   2.351       .  S
O1500      C1523   1.304       .  A
O1501      C1524   1.308       .  A
O1501     Eu1517   2.551       .  S
O1502      C1525   1.286       .  A
O1502     Eu1518   2.427   1_554  S
O1503      C1526   1.289       .  A
O1503     Eu1519   2.444   1_554  S
O1504      C1527   1.289       .  A
O1505      C1528   1.286       .  A
O1506      C1529   1.282       .  A
O1507      C1530   1.288       .  A
O1507     Eu1520   2.446       .  S
O1508      C1529   1.286       .  A
O1509      C1530   1.281       .  A
O1510      C1525   1.306       .  A
O1511      C1528   1.306       .  A
O1512      C1527   1.303       .  A
O1512     Eu1517   2.530       .  S
O1513      C1526   1.307       .  A
O1513     Eu1516   2.548       .  S
O1514      C1523   1.285       .  A
O1514     Eu1520   2.420   1_554  S
O1515      C1524   1.286       .  A
O1515     Eu1520   2.426       .  S
Eu1517     O1521   2.375       .  S
Eu1520     O1521   2.345       .  S
Eu1520     O1534   2.349   1_556  S
C1523      C1648   1.501       .  S
C1524      C1721   1.506       .  S
C1525      C1618   1.503   1_565  S
C1526      C1628   1.507       .  S
C1527      C1698   1.494       .  S
C1528      C1708   1.508       .  S
C1529      C1688   1.451   1_556  S
C1530      C1678   1.452       .  S
H1531      O1532   0.969       .  S
H1533      O1534   0.956       .  S
N1535      H1567   1.042       .  S
N1535      C1540   1.349       .  A
N1535      C1539   1.346       .  A
N1536      C1543   1.344       .  A
N1536      C1544   1.345       .  A
N1537      H1568   1.042       .  S
N1537      C1542   1.347       .  A
N1537      C1541   1.348       .  A
N1538      C1545   1.343       .  A
N1538      C1546   1.342       .  A
C1539      C1547   1.388   1_554  A
C1539      C1555   1.404       .  A
C1540      C1556   1.404       .  A
C1540      C1548   1.386   1_554  A
C1541      C1549   1.387   1_554  A
C1541      C1558   1.404       .  A
C1542      C1557   1.404       .  A
C1542      C1550   1.387   1_554  A
C1543      C1555   1.403       .  A
C1543      C1551   1.387       .  A
C1544      C1558   1.402       .  A
C1544      C1552   1.386       .  A
C1545      C1553   1.385       .  A
C1545      C1556   1.400       .  A
C1546      C1554   1.386       .  A
C1546      C1557   1.399       .  A
C1547      C1548   1.371       .  A
C1547      H1559   1.082       .  S
C1548      H1560   1.082       .  S
C1549      C1550   1.372       .  A
C1549      H1561   1.082       .  S
C1550      H1562   1.082       .  S
C1551      C1552   1.375       .  A
C1551      H1563   1.083       .  S
C1552      H1564   1.083       .  S
C1553      C1554   1.376       .  A
C1553      H1565   1.082       .  S
C1554      H1566   1.082       .  S
C1555      C1681   1.464       .  S
C1556      C1668   1.470       .  S
C1557      C1658   1.465       .  S
C1558      C1691   1.467       .  S
C1569      C1570   1.533       .  S
C1569      C1573   1.528       .  S
C1569      C1821   1.554       .  S
C1570      H1577   1.082       .  S
C1571      C1572   1.567   1_455  S
C1571      C1651   1.509   1_455  S
C1572      C1576   1.540       .  S
C1572      C1574   1.560   1_655  S
C1572      H1578   1.110       .  S
C1573      H1579   1.087       .  S
C1574      C1641   1.501       .  S
C1575      H1580   1.083       .  S
C1575      C1576   1.375   1_455  D
C1576      C1831   1.503       .  S
C1581      C1582   1.538       .  S
C1581      C1587   1.554       .  S
C1581      C1621   1.562       .  S
C1582      H1589   1.082       .  S
C1582      C1583   1.368       .  D
C1583      C1584   1.560   1_565  S
C1583      C1841   1.508       .  S
C1584      C1588   1.544   1_545  S
C1584      H1590   1.108       .  S
C1585      H1591   1.086       .  S
C1585      C1586   1.369       .  D
C1586      C1851   1.514       .  S
C1587      H1592   1.085       .  S
C1587      C1588   1.378       .  D
C1588      C1631   1.509       .  S
C1593      C1594   1.536       .  S
C1593      C1597   1.532       .  S
C1593      C1751   1.553       .  S
C1594      H1601   1.085       .  S
C1595      C1596   1.559   1_455  S
C1595      C1731   1.506   1_455  S
C1596      C1600   1.534       .  S
C1596      C1598   1.559   1_655  S
C1596      H1602   1.109       .  S
C1597      H1603   1.086       .  S
C1598      C1718   1.515   1_455  S
C1599      H1604   1.084       .  S
C1599      C1600   1.375   1_455  D
C1600      C1741   1.491       .  S
C1605      C1611   1.563       .  S
C1605      C1609   1.529   1_545  S
C1605      C1711   1.556   1_545  S
C1606      H1613   1.085       .  S
C1606      C1607   1.368       .  D
C1607      C1761   1.504       .  S
C1608      C1612   1.537       .  S
C1608      C1610   1.564   1_545  S
C1608      H1614   1.110       .  S
C1609      H1615   1.086       .  S
C1609      C1610   1.365       .  D
C1610      C1768   1.515       .  S
C1611      H1616   1.083       .  S
C1611      C1612   1.376       .  D
C1612      C1701   1.498       .  S
C1617      C1622   1.405       .  A
C1617      F1624   1.359       .  S
C1618      C1619   1.403   1_545  A
C1619      C1620   1.414       .  A
C1619      F1626   1.358       .  S
C1620      C1621   1.428       .  A
C1620      F1625   1.354       .  S
C1622      F1623   1.357       .  S
C1627      C1628   1.410       .  A
C1627      C1632   1.416       .  A
C1627      F1634   1.357       .  S
C1629      C1630   1.403       .  A
C1629      F1636   1.358       .  S
C1630      F1635   1.358       .  S
C1631      C1632   1.415       .  A
C1632      F1633   1.357       .  S
C1637      C1642   1.412       .  A
C1637      F1644   1.358       .  S
C1638      C1639   1.420       .  A
C1639      C1640   1.398       .  A
C1639      F1646   1.358       .  S
C1640      C1641   1.397   1_655  A
C1640      F1645   1.349       .  S
C1642      F1643   1.358       .  S
C1647      C1652   1.412       .  A
C1647      F1654   1.357       .  S
C1648      C1649   1.417       .  A
C1649      C1650   1.400       .  A
C1649      F1656   1.358       .  S
C1650      C1651   1.402       .  A
C1650      F1655   1.349       .  S
C1652      F1653   1.358       .  S
C1657      C1658   1.403   1_556  A
C1657      C1662   1.392       .  A
C1657      F1664   1.359       .  S
C1658      C1659   1.400       .  A
C1659      C1660   1.389       .  A
C1659      F1666   1.358       .  S
C1660      C1661   1.402       .  A
C1660      F1665   1.358       .  S
C1661      C1662   1.402   1_554  A
C1662      F1663   1.357       .  S
C1667      C1668   1.404   1_556  A
C1667      C1672   1.397       .  A
C1667      F1674   1.358       .  S
C1668      C1669   1.400       .  A
C1669      C1670   1.390       .  A
C1669      F1676   1.358       .  S
C1670      C1671   1.404   1_554  A
C1670      F1675   1.357       .  S
C1671      C1672   1.406       .  A
C1672      F1673   1.358       .  S
C1677      C1678   1.402   1_554  A
C1677      C1682   1.388       .  A
C1677      F1684   1.358       .  S
C1678      C1679   1.404       .  A
C1679      C1680   1.393       .  A
C1679      F1686   1.358       .  S
C1680      C1681   1.402   1_556  A
C1680      F1685   1.358       .  S
C1681      C1682   1.401       .  A
C1682      F1683   1.358       .  S
C1687      C1688   1.404       .  A
C1687      C1692   1.391       .  A
C1687      F1694   1.359       .  S
C1688      C1689   1.400   1_554  A
C1689      C1690   1.391       .  A
C1689      F1696   1.358       .  S
C1690      C1691   1.403   1_556  A
C1690      F1695   1.358       .  S
C1691      C1692   1.402       .  A
C1692      F1693   1.358       .  S
C1697      C1702   1.406       .  A
C1697      F1704   1.357       .  S
C1698      C1699   1.410       .  A
C1699      C1700   1.414       .  A
C1699      F1706   1.358       .  S
C1700      F1705   1.358       .  S
C1701      C1702   1.404   1_545  A
C1702      F1703   1.357       .  S
C1707      C1712   1.415       .  A
C1707      F1714   1.357       .  S
C1708      C1709   1.415       .  A
C1709      C1710   1.403       .  A
C1709      F1716   1.357       .  S
C1710      F1715   1.357       .  S
C1711      C1712   1.425   1_565  A
C1712      F1713   1.357       .  S
C1717      C1722   1.405       .  A
C1717      F1724   1.351       .  S
C1718      C1719   1.419   1_655  A
C1719      C1720   1.409       .  A
C1719      F1726   1.357       .  S
C1720      C1721   1.405   1_455  A
C1720      F1725   1.357       .  S
C1722      F1723   1.358       .  S
C1727      C1728   1.409       .  A
C1727      C1732   1.411   1_655  A
C1727      F1734   1.357   1_655  S
C1729      C1730   1.406       .  A
C1729      F1736   1.358       .  S
C1730      F1735   1.352       .  S
C1731      C1732   1.417   1_655  A
C1732      F1733   1.358       .  S
C1737      C1738   1.411       .  A
C1737      C1742   1.403       .  A
C1737      F1744   1.358       .  S
C1738      C1739   1.404       .  A
C1739      C1740   1.407       .  A
C1739      F1746   1.357       .  S
C1740      C1741   1.409       .  A
C1740      F1745   1.357       .  S
C1741      C1742   1.405       .  A
C1742      F1743   1.358       .  S
C1747      C1748   1.401       .  A
C1747      C1752   1.410       .  A
C1747      F1754   1.357       .  S
C1748      C1749   1.415       .  A
C1749      C1750   1.401       .  A
C1749      F1756   1.360       .  S
C1750      C1751   1.414       .  A
C1750      F1755   1.356       .  S
C1751      C1752   1.424       .  A
C1752      F1753   1.356       .  S
C1757      C1758   1.410       .  A
C1757      C1762   1.411       .  A
C1757      F1764   1.358       .  S
C1758      C1759   1.417       .  A
C1759      C1760   1.399       .  A
C1759      F1766   1.358       .  S
C1760      C1761   1.399       .  A
C1760      F1765   1.352       .  S
C1761      C1762   1.417       .  A
C1762      F1763   1.358       .  S
C1767      C1768   1.401       .  A
C1767      C1772   1.405       .  A
C1767      F1774   1.353       .  S
C1768      C1769   1.419       .  A
C1769      C1770   1.414       .  A
C1769      F1776   1.358       .  S
C1770      C1771   1.409       .  A
C1770      F1775   1.357       .  S
C1771      C1772   1.423       .  A
C1772      F1773   1.358       .  S
C1777      C1778   1.404       .  A
C1777      C1782   1.395       .  A
C1777      F1784   1.359       .  S
C1778      C1779   1.398       .  A
C1779      C1780   1.391       .  A
C1779      F1786   1.358       .  S
C1780      C1781   1.403       .  A
C1780      F1785   1.358       .  S
C1781      C1782   1.402       .  A
C1782      F1783   1.356       .  S
C1787      C1788   1.404       .  A
C1787      C1792   1.393       .  A
C1787      F1794   1.357       .  S
C1788      C1789   1.407       .  A
C1789      C1790   1.394       .  A
C1789      F1796   1.359       .  S
C1790      C1791   1.403       .  A
C1790      F1795   1.359       .  S
C1791      C1792   1.401       .  A
C1792      F1793   1.358       .  S
C1797      C1798   1.401       .  A
C1797      C1802   1.390       .  A
C1797      F1804   1.358       .  S
C1798      C1799   1.405       .  A
C1799      C1800   1.396       .  A
C1799      F1806   1.358       .  S
C1800      C1801   1.406       .  A
C1800      F1805   1.359       .  S
C1801      C1802   1.401       .  A
C1802      F1803   1.352       .  S
C1807      C1808   1.405       .  A
C1807      C1812   1.395       .  A
C1807      F1814   1.358       .  S
C1808      C1809   1.402       .  A
C1809      C1810   1.393       .  A
C1809      F1816   1.358       .  S
C1810      C1811   1.403       .  A
C1810      F1815   1.358       .  S
C1811      C1812   1.404       .  A
C1812      F1813   1.358       .  S
C1817      C1818   1.409       .  A
C1817      C1822   1.398       .  A
C1817      F1824   1.353       .  S
C1818      C1819   1.403       .  A
C1819      C1820   1.414       .  A
C1819      F1826   1.358       .  S
C1820      C1821   1.430       .  A
C1820      F1825   1.355       .  S
C1821      C1822   1.409       .  A
C1822      F1823   1.357       .  S
C1827      C1828   1.411       .  A
C1827      C1832   1.417       .  A
C1827      F1834   1.358       .  S
C1828      C1829   1.408       .  A
C1829      C1830   1.400       .  A
C1829      F1836   1.356       .  S
C1830      C1831   1.404       .  A
C1830      F1835   1.357       .  S
C1831      C1832   1.414       .  A
C1832      F1833   1.358       .  S
C1837      C1838   1.426       .  A
C1837      C1842   1.408       .  A
C1837      F1844   1.358       .  S
C1838      C1839   1.408       .  A
C1839      C1840   1.410       .  A
C1839      F1846   1.357       .  S
C1840      C1841   1.415       .  A
C1840      F1845   1.357       .  S
C1841      C1842   1.400       .  A
C1842      F1843   1.356       .  S
C1847      C1848   1.417       .  A
C1847      C1852   1.406       .  A
C1847      F1854   1.359       .  S
C1848      C1849   1.404       .  A
C1849      C1850   1.408       .  A
C1849      F1856   1.357       .  S
C1850      C1851   1.420       .  A
C1850      F1855   1.357       .  S
C1851      C1852   1.406       .  A
C1852      F1853   1.353       .  S
