geometry optimzed in LAMMPS
_audit_creation_date              2020-12-01 
_audit_creation_method            'lammps2cif' 
_symmetry_space_group_name_H-M    'P1' 
_symmetry_Int_Tables_number       1 
_symmetry_cell_setting            triclinic 
loop_ 
_symmetry_equiv_pos_as_xyz 
  x,y,z 
_cell_length_a                    48.83232733 
_cell_length_b                    29.933757539822096 
_cell_length_c                    27.20873720199436 
_cell_angle_alpha                 90.33781820058721 
_cell_angle_beta                  89.9370496609701 
_cell_angle_gamma                 89.62067657270735 
loop_ 
_atom_site_label 
_atom_site_type_symbol 
_atom_site_fract_x 
_atom_site_fract_y 
_atom_site_fract_z 
_atom_site_charge 
O1          O  0.52892976  0.02123238  0.30069403    -0.74400
O2          O  0.47589682  0.03394623  0.19872430    -0.74400
O3          O  0.47391860  0.02296302  0.29763691    -0.74500
O4          O  0.53144462  0.03222346  0.20222319    -0.74500
O5          O  0.53094721  0.95826830  0.19159282    -0.74500
O6          O  0.47339043  0.94898867  0.28735653    -0.74500
O7          O  0.47591086  0.95995414  0.18874545    -0.74400
O8          O  0.52907211  0.94724020  0.29073804    -0.74500
Ni9        Ni  0.50255876  0.03020810  0.25013596     1.25400
Ni10       Ni  0.50233079  0.95094769  0.23929263     1.25400
C11         C  0.53758922  0.98238359  0.31284766     0.87800
C12         C  0.46722671  0.99885977  0.17676496     0.87700
C13         C  0.46431056  0.98452283  0.30848845     0.87700
C14         C  0.54048526  0.99680578  0.18088728     0.87900
C15         C  0.34215178  0.94612737  0.00980311     0.86500
C16         C  0.32610931  0.99130003  0.49919200    -0.53700
C17         C  0.34198864  0.02727512  0.48891279     0.09400
C18         C  0.37291555  0.01762465  0.49099825     0.20400
C19         C  0.36158616  0.94178562  0.46597656    -0.54500
C20         C  0.37778126  0.97796914  0.45544094     0.09500
C21         C  0.36175381  0.95849078  0.05146121    -0.54000
C22         C  0.37794115  0.99419830  0.04200503     0.10100
H23         H  0.30387755  0.99244742  0.49780585     0.14600
H24         H  0.38527843  0.04778341  0.48366726     0.00400
H25         H  0.36391073  0.91032798  0.44672638     0.14900
H26         H  0.36435274  0.93809579  0.08409113     0.14700
C27         C  0.65999286  0.04202416  0.47774116     0.86500
C28         C  0.64256964  0.02394517  0.43530300    -0.53700
C29         C  0.62711242  0.98778834  0.44684719     0.09400
C30         C  0.63217712  0.96937830  0.99886082     0.20400
C31         C  0.63995935  0.04702838  0.02121245    -0.54500
C32         C  0.62519211  0.00951719  0.03224070     0.09500
C33         C  0.67755999  0.00151629  0.49299702    -0.54000
C34         C  0.66332625  0.96314843  0.00374580     0.10100
H35         H  0.64024497  0.04126937  0.40054537     0.14600
H36         H  0.62068831  0.93840522  0.00695287     0.00400
H37         H  0.63692976  0.07884397  0.03980786     0.14900
H38         H  0.69964326  0.00094357  0.49554471     0.14700
O39         O  0.52934003  0.48983144  0.19487243    -0.74400
O40         O  0.47290258  0.49572508  0.29142757    -0.74400
O41         O  0.47382967  0.48352796  0.19365689    -0.74500
O42         O  0.52756687  0.50202351  0.29331792    -0.74500
O43         O  0.52460847  0.57580189  0.28281374    -0.74500
O44         O  0.47071174  0.55720230  0.18240578    -0.74500
O45         O  0.46892720  0.56938515  0.28089394    -0.74400
O46         O  0.52589565  0.56346521  0.18390968    -0.74500
Ni47       Ni  0.50107391  0.49020398  0.24356274     1.25400
Ni48       Ni  0.49745000  0.56918313  0.23213610     1.25400
C49         C  0.53691450  0.52562615  0.17338827     0.87800
C50         C  0.46159631  0.53322570  0.30201602     0.87700
C51         C  0.46312898  0.51732368  0.17220143     0.87700
C52         C  0.53468942  0.54177484  0.30491787     0.87900
C53         C  0.34423960  0.45597516  0.47411690     0.86500
C54         C  0.35926824  0.47477331  0.42901853    -0.53700
C55         C  0.37341939  0.51291750  0.43798840     0.09400
C56         C  0.36784783  0.53017193  0.99455474     0.20400
C57         C  0.36463357  0.45244402  0.01916784    -0.54500
C58         C  0.37801921  0.49198654  0.02743449     0.09500
C59         C  0.32568659  0.49504283  0.49035392    -0.54000
C60         C  0.33687645  0.53252656  0.00354294     0.10100
H61         H  0.36073185  0.45757750  0.39385121     0.14600
H62         H  0.37776963  0.56291786  0.00059739     0.00400
H63         H  0.36953410  0.42181670  0.03852632     0.14900
H64         H  0.30359495  0.49356092  0.49325799     0.14700
C65         C  0.65356665  0.47859250  0.47268988     0.86500
C66         C  0.67209259  0.51757079  0.48794908    -0.53700
C67         C  0.66010139  0.55550890  0.99471545     0.09400
C68         C  0.62866676  0.55328526  0.99166203     0.20400
C69         C  0.63398181  0.47439700  0.01004296    -0.54500
C70         C  0.62087620  0.51314740  0.02366826     0.09500
C71         C  0.63662478  0.49834639  0.43032134    -0.54000
C72         C  0.62216453  0.53586093  0.44238897     0.10100
H73         H  0.69426800  0.51612924  0.48848774     0.14600
H74         H  0.61864503  0.58537648  0.00189860     0.00400
H75         H  0.63009906  0.44239212  0.02710396     0.14900
H76         H  0.63428524  0.48233729  0.39468458     0.14700
O77         O  0.97134284  0.47042127  0.04284662    -0.74400
O78         O  0.03040638  0.46492878  0.45246075    -0.74400
O79         O  0.02693248  0.46527129  0.04895459    -0.74500
O80         O  0.97532219  0.46963482  0.44593526    -0.74500
O81         O  0.97641531  0.54390018  0.45056989    -0.74500
O82         O  0.02955377  0.53932705  0.05516690    -0.74500
O83         O  0.03205787  0.53921452  0.45520483    -0.74400
O84         O  0.97400427  0.54449167  0.05110608    -0.74500
Ni85       Ni  0.00072483  0.46266313  0.49845608     1.25400
Ni86       Ni  0.00292119  0.54218252  0.50278590     1.25400
C87         C  0.96286141  0.50716784  0.06196879     0.87800
C88         C  0.04097169  0.50179371  0.43828609     0.87700
C89         C  0.03726295  0.50027014  0.06866348     0.87700
C90         C  0.96708452  0.50796989  0.43116143     0.87900
C91         C  0.16430123  0.44602830  0.25352631     0.86500
C92         C  0.14794079  0.45553177  0.30077490    -0.53700
C93         C  0.13019197  0.49059459  0.29797002     0.09400
C94         C  0.13164988  0.51552581  0.24884785     0.20400
C95         C  0.14259013  0.44305879  0.21259349    -0.54500
C96         C  0.12528977  0.47934286  0.21013055     0.09500
C97         C  0.17917180  0.49029390  0.24395363    -0.54000
C98         C  0.16210466  0.52634038  0.24069293     0.10100
H99         H  0.14868797  0.43406885  0.33282646     0.14600
H100        H  0.11800902  0.54526341  0.24810838     0.00400
H101        H  0.14163854  0.41488290  0.18744628     0.14900
H102        H  0.20098813  0.49412176  0.23917170     0.14700
C103        C  0.83872154  0.46717857  0.25605335     0.86500
C104        C  0.82480465  0.51272874  0.25150849    -0.53700
C105        C  0.84233878  0.54753599  0.24695832     0.09400
C106        C  0.87279160  0.53370507  0.24741808     0.20400
C107        C  0.85752392  0.46390061  0.20997658    -0.54500
C108        C  0.87566627  0.49876885  0.20597634     0.09500
C109        C  0.85881460  0.47198588  0.29883406    -0.54000
C110        C  0.87696673  0.50600344  0.29426784     0.10100
H111        H  0.80270348  0.51675676  0.24916454     0.14600
H112        H  0.88680466  0.56256669  0.24409316     0.00400
H113        H  0.85764641  0.43622433  0.18415855     0.14900
H114        H  0.85952862  0.44857947  0.32921277     0.14700
O115        O  0.97188951  0.02801799  0.45827026    -0.74400
O116        O  0.02682027  0.02567452  0.04965951    -0.74400
O117        O  0.02699339  0.02349252  0.45630741    -0.74500
O118        O  0.97135923  0.02636288  0.05237698    -0.74500
O119        O  0.97121903  0.95245490  0.06147209    -0.74500
O120        O  0.02557239  0.94921555  0.45711514    -0.74500
O121        O  0.02687754  0.95177480  0.05848750    -0.74400
O122        O  0.96982450  0.95379593  0.45898629    -0.74500
Ni123      Ni  0.00013836  0.02959873  0.50672223     1.25400
Ni124      Ni  0.99817094  0.95007423  0.50813276     1.25400
C125        C  0.96142087  0.99154620  0.44248871     0.87800
C126        C  0.03647345  0.99021068  0.06962379     0.87700
C127        C  0.03527235  0.98560921  0.43982904     0.87700
C128        C  0.96208306  0.99140622  0.07325432     0.87900
C129        C  0.16191515  0.02999464  0.26284553     0.86500
C130        C  0.17595265  0.98491892  0.25427656    -0.53700
C131        C  0.15837021  0.95040831  0.24751660     0.09400
C132        C  0.12789168  0.96375466  0.25108203     0.20400
C133        C  0.14238423  0.03545161  0.21835309    -0.54500
C134        C  0.12430595  0.00085232  0.21259793     0.09500
C135        C  0.14248896  0.02285746  0.30621190    -0.54000
C136        C  0.12450348  0.98868470  0.30028643     0.10100
H137        H  0.19801402  0.98113204  0.25055937     0.14600
H138        H  0.11361566  0.93531924  0.24708041     0.00400
H139        H  0.14242232  0.06366189  0.19369727     0.14900
H140        H  0.14186632  0.04510638  0.33793183     0.14700
C141        C  0.83665507  0.04832293  0.26169068     0.86500
C142        C  0.85353608  0.03856436  0.30811194    -0.53700
C143        C  0.87114857  0.00316034  0.30414893     0.09400
C144        C  0.86876203  0.97815777  0.25472901     0.20400
C145        C  0.85797279  0.05087239  0.21993922    -0.54500
C146        C  0.87483228  0.01414200  0.21627132     0.09500
C147        C  0.82138294  0.00432573  0.25252543    -0.54000
C148        C  0.83810985  0.96798262  0.24803508     0.10100
H149        H  0.85304846  0.05992053  0.34051910     0.14600
H150        H  0.88222786  0.94825561  0.25213370     0.00400
H151        H  0.85922070  0.07914621  0.19527257     0.14900
H152        H  0.79946119  0.00090398  0.24896588     0.14700
O153        O  0.73354997  0.30586600  0.42475549    -0.74400
O154        O  0.77915072  0.21953413  0.35977590    -0.74400
O155        O  0.77580403  0.30961263  0.36156092    -0.74500
O156        O  0.73686526  0.21527153  0.42338879    -0.74500
O157        O  0.70676798  0.21468542  0.36177739    -0.74500
O158        O  0.74797656  0.30599230  0.29662039    -0.74500
O159        O  0.74935792  0.21523627  0.29788335    -0.74400
O160        O  0.70520062  0.30522165  0.36062700    -0.74500
Ni161      Ni  0.75734667  0.26260152  0.39459313     1.25400
Ni162      Ni  0.72624477  0.26023580  0.32693360     1.25400
C163        C  0.71209207  0.32049406  0.40292957     0.87800
C164        C  0.77167318  0.20275651  0.31853375     0.87700
C165        C  0.76842416  0.32325599  0.31910271     0.87700
C166        C  0.71549681  0.19925720  0.40278134     0.87900
O167        O  0.78872401  0.80164764  0.12347781    -0.74400
O168        O  0.74593703  0.70996607  0.06293168    -0.74400
O169        O  0.74464841  0.80023187  0.06339138    -0.74500
O170        O  0.79016773  0.71139287  0.12350886    -0.74500
O171        O  0.76244023  0.71051512  0.18848238    -0.74500
O172        O  0.71719831  0.79992211  0.12876012    -0.74500
O173        O  0.71814461  0.70950426  0.12781096    -0.74400
O174        O  0.76140000  0.80070448  0.18909250    -0.74500
Ni175      Ni  0.76834589  0.75575112  0.09103681     1.25400
Ni176      Ni  0.73879941  0.75507518  0.16084740     1.25400
C177        C  0.78218157  0.81632551  0.16626110     0.87800
C178        C  0.72472870  0.69495533  0.08493040     0.87700
C179        C  0.72345465  0.81500745  0.08626085     0.87700
C180        C  0.78402748  0.69658452  0.16619052     0.87900
O181        O  0.26579255  0.19684567  0.42910403    -0.74400
O182        O  0.22123316  0.28176011  0.36023400    -0.74400
O183        O  0.22359080  0.19173553  0.36606891    -0.74500
O184        O  0.26363604  0.28705861  0.42467900    -0.74500
O185        O  0.29355012  0.28395895  0.36283153    -0.74500
O186        O  0.25163503  0.19172669  0.30115762    -0.74500
O187        O  0.25129390  0.28208063  0.29843647    -0.74400
O188        O  0.29404514  0.19395413  0.36485091    -0.74500
Ni189      Ni  0.24247804  0.23956151  0.39724572     1.25400
Ni190      Ni  0.27367376  0.23795239  0.32956959     1.25400
C191        C  0.28707656  0.18063436  0.40767598     0.87800
C192        C  0.22895647  0.29589877  0.31804431     0.87700
C193        C  0.23109704  0.17589789  0.32440219     0.87700
C194        C  0.28563037  0.30052144  0.40404766     0.87900
O195        O  0.21002687  0.69561146  0.11947494    -0.74400
O196        O  0.25438453  0.78616079  0.06045648    -0.74400
O197        O  0.25455062  0.69602439  0.06049005    -0.74500
O198        O  0.20958206  0.78624878  0.11984232    -0.74500
O199        O  0.23611858  0.78529226  0.18642364    -0.74500
O200        O  0.28204935  0.69676969  0.12572482    -0.74500
O201        O  0.28075872  0.78741268  0.12740776    -0.74400
O202        O  0.23741123  0.69517857  0.18489592    -0.74500
Ni203      Ni  0.23116084  0.74105638  0.08772997     1.25400
Ni204      Ni  0.26007726  0.74118275  0.15842334     1.25400
C205        C  0.21651065  0.68019816  0.16181708     0.87800
C206        C  0.27477767  0.80174360  0.08445278     0.87700
C207        C  0.27565313  0.68132905  0.08324871     0.87700
C208        C  0.21527110  0.80039656  0.16316675     0.87900
C209        C  0.81423817  0.88032097  0.15846754    -0.21300
C210        C  0.79855853  0.85250610  0.18877002    -0.09300
C211        C  0.79793709  0.86104118  0.23978213     0.29500
C212        C  0.81225094  0.89733089  0.25954274    -0.21300
C213        C  0.82730670  0.92548132  0.22887742    -0.09300
C214        C  0.82815176  0.91683683  0.17816004     0.29500
F215        F  0.84075335  0.94553555  0.14719468    -0.19900
H216        H  0.81472778  0.87505243  0.11901870     0.17900
H217        H  0.81089242  0.90436694  0.29860741     0.17900
F218        F  0.78326621  0.83478742  0.27046868    -0.19900
C219        C  0.77651475  0.13309280  0.26828141    -0.21300
C220        C  0.78869890  0.16738730  0.29572893    -0.09300
C221        C  0.81705865  0.16597279  0.30370942     0.29500
C222        C  0.83237870  0.12894077  0.28843146    -0.21300
C223        C  0.81968534  0.09138500  0.26704508    -0.09300
C224        C  0.79177194  0.09555162  0.25357636     0.29500
F225        F  0.77908338  0.06475957  0.22511320    -0.19900
H226        H  0.75486357  0.13451204  0.25972654     0.17900
H227        H  0.85415019  0.12856422  0.29602549     0.17900
F228        F  0.82993050  0.19999299  0.32722209    -0.19900
C229        C  0.18361347  0.87878443  0.25774787    -0.21300
C230        C  0.16856861  0.90762829  0.22758896    -0.09300
C231        C  0.16774943  0.89970516  0.17671332     0.29500
C232        C  0.18198390  0.86350119  0.15631771    -0.21300
C233        C  0.19791455  0.83538103  0.18612844    -0.09300
C234        C  0.19817962  0.84282020  0.23733549     0.29500
F235        F  0.21294546  0.81601891  0.26758278    -0.19900
H236        H  0.18492512  0.88521858  0.29690307     0.17900
H237        H  0.18172733  0.85895644  0.11678860     0.17900
F238        F  0.15519244  0.92908744  0.14624496    -0.19900
C239        C  0.18606608  0.10448512  0.24392820    -0.21300
C240        C  0.18238534  0.06684054  0.27417160    -0.09300
C241        C  0.19766804  0.06408168  0.31815337     0.29500
C242        C  0.21381209  0.09957634  0.33352504    -0.21300
C243        C  0.21621251  0.13767415  0.30453339    -0.09300
C244        C  0.20305727  0.13951456  0.25886858     0.29500
F245        F  0.20552026  0.17609675  0.22999587    -0.19900
H246        H  0.17578598  0.10772423  0.20900702     0.17900
H247        H  0.22428590  0.09755085  0.36859183     0.17900
F248        F  0.19596554  0.02772995  0.34762682    -0.19900
C249        C  0.09437267  0.95781675  0.15530927    -0.21300
C250        C  0.10240026  0.99930390  0.17459452    -0.09300
C251        C  0.08833940  0.03805797  0.15921459     0.29500
C252        C  0.06709422  0.03498327  0.12484539    -0.21300
C253        C  0.05912919  0.99332855  0.10570553    -0.09300
C254        C  0.07307727  0.95466650  0.12147062     0.29500
F255        F  0.06638273  0.91355519  0.10411797    -0.19900
H256        H  0.10462170  0.92726680  0.16618688     0.17900
H257        H  0.05651897  0.06528213  0.11389069     0.17900
F258        F  0.09411817  0.07867222  0.17887094    -0.19900
C259        C  0.06943570  0.94450932  0.38610525    -0.21300
C260        C  0.05655442  0.98473448  0.40083497    -0.09300
C261        C  0.06489703  0.02493137  0.37889205     0.29500
C262        C  0.08624423  0.02505603  0.34518171    -0.21300
C263        C  0.10009898  0.98548886  0.33243508    -0.09300
C264        C  0.09104551  0.94481666  0.35190595     0.29500
F265        F  0.10378685  0.90588880  0.33963590    -0.19900
H266        H  0.06328981  0.91304069  0.40195650     0.17900
H267        H  0.09226604  0.05663971  0.32937872     0.17900
F268        F  0.05279799  0.06462431  0.39030337    -0.19900
C269        C  0.92629434  0.95450021  0.38801971    -0.21300
C270        C  0.93912387  0.99363332  0.40527652    -0.09300
C271        C  0.92996541  0.03516987  0.38725881     0.29500
C272        C  0.90821251  0.03737642  0.35432479    -0.21300
C273        C  0.89478872  0.99857336  0.33829804    -0.09300
C274        C  0.90439214  0.95687222  0.35460678     0.29500
F275        F  0.89210225  0.91863432  0.33962270    -0.19900
H276        H  0.93296347  0.92202134  0.40087354     0.17900
H277        H  0.90190555  0.06993101  0.34107199     0.17900
F278        F  0.94179787  0.07406834  0.40148637    -0.19900
C279        C  0.93457109  0.03911367  0.13100286    -0.21300
C280        C  0.94022861  0.99666193  0.11075317    -0.09300
C281        C  0.92423500  0.96024520  0.12557609     0.29500
C282        C  0.90307513  0.96641690  0.15958306    -0.21300
C283        C  0.89717860  0.00890496  0.17940119    -0.09300
C284        C  0.91340010  0.04525874  0.16508038     0.29500
F285        F  0.90956347  0.08641836  0.18520919    -0.19900
H286        H  0.94672103  0.06773313  0.12074153     0.17900
H287        H  0.89108864  0.93769201  0.16985393     0.17900
F288        F  0.92853029  0.91878631  0.10649994    -0.19900
C289        C  0.78521643  0.40013532  0.32530767    -0.21300
C290        C  0.78336018  0.36082701  0.29773619    -0.09300
C291        C  0.79789519  0.35687700  0.25335249     0.29500
C292        C  0.81522557  0.39145507  0.23810200    -0.21300
C293        C  0.81806106  0.43046834  0.26695932    -0.09300
C294        C  0.80200256  0.43470575  0.31006164     0.29500
F295        F  0.80352354  0.47176445  0.33896930    -0.19900
H296        H  0.77403849  0.40365265  0.35961871     0.17900
H297        H  0.82682703  0.38664591  0.20463363     0.17900
F298        F  0.79660112  0.31864677  0.22641665    -0.19900
C299        C  0.83970053  0.60922697  0.18676757    -0.21300
C300        C  0.83185335  0.59182180  0.23226167    -0.09300
C301        C  0.81014559  0.61200202  0.25823101     0.29500
C302        C  0.79537211  0.64719000  0.23732879    -0.21300
C303        C  0.80183845  0.66265366  0.18999732    -0.09300
C304        C  0.82480155  0.64417221  0.16552888     0.29500
F305        F  0.83209654  0.65806522  0.12000552    -0.19900
H306        H  0.85615873  0.59362136  0.16600951     0.17900
H307        H  0.77819995  0.66116844  0.25755479     0.17900
F308        F  0.80244601  0.59621254  0.30281289    -0.19900
C309        C  0.18848238  0.59637623  0.25320563    -0.21300
C310        C  0.17233785  0.56952431  0.22267430    -0.09300
C311        C  0.16961423  0.58044204  0.17280287     0.29500
C312        C  0.18315144  0.61752739  0.15370432    -0.21300
C313        C  0.20008657  0.64384949  0.18378325    -0.09300
C314        C  0.20220413  0.63335387  0.23413510     0.29500
F315        F  0.21789662  0.65823751  0.26484485    -0.19900
H316        H  0.19113368  0.58780913  0.29156516     0.17900
H317        H  0.18135960  0.62439627  0.11477568     0.17900
F318        F  0.15549472  0.55343930  0.14180224    -0.19900
C319        C  0.16832292  0.36545639  0.27873541    -0.21300
C320        C  0.18128358  0.40308330  0.25840515    -0.09300
C321        C  0.20956311  0.39954494  0.24757165     0.29500
C322        C  0.22479998  0.36314648  0.26488579    -0.21300
C323        C  0.21219684  0.32952932  0.29236856    -0.09300
C324        C  0.18360442  0.32963526  0.29675120     0.29500
F325        F  0.17048483  0.29570286  0.31957603    -0.19900
H326        H  0.14634770  0.36537300  0.28423391     0.17900
H327        H  0.24670884  0.36228926  0.25863030     0.17900
F328        F  0.22269595  0.42998412  0.21966350    -0.19900
C329        C  0.06679940  0.45241342  0.12222654    -0.21300
C330        C  0.05892542  0.49524547  0.10640905    -0.09300
C331        C  0.07275133  0.53257209  0.12556081     0.29500
C332        C  0.09429538  0.52686135  0.15861939    -0.21300
C333        C  0.10246056  0.48403906  0.17409819    -0.09300
C334        C  0.08812262  0.44673833  0.15590409     0.29500
F335        F  0.09395811  0.40479324  0.17150898    -0.19900
H336        H  0.05639437  0.42303307  0.10860463     0.17900
H337        H  0.10480250  0.55639157  0.17128640     0.17900
F338        F  0.06586429  0.57473923  0.11198038    -0.19900
C339        C  0.06969066  0.46002936  0.37752505    -0.21300
C340        C  0.06361310  0.50048252  0.40170967    -0.09300
C341        C  0.07932884  0.53853483  0.39035890     0.29500
C342        C  0.10074517  0.53561824  0.35594367    -0.21300
C343        C  0.10699603  0.49480547  0.33292182    -0.09300
C344        C  0.09097791  0.45715703  0.34350514     0.29500
F345        F  0.09559664  0.41754978  0.32022294    -0.19900
H346        H  0.05783595  0.43031898  0.38471215     0.17900
H347        H  0.11281055  0.56494719  0.34802111     0.17900
F348        F  0.07443490  0.57828073  0.41304632    -0.19900
C349        C  0.93809083  0.46974064  0.36917823    -0.21300
C350        C  0.94595397  0.50975778  0.39215165    -0.09300
C351        C  0.93238794  0.54976289  0.37916343     0.29500
C352        C  0.91036845  0.54886112  0.34605845    -0.21300
C353        C  0.90161630  0.50824145  0.32578177    -0.09300
C354        C  0.91635318  0.46889863  0.33628853     0.29500
F355        F  0.90978904  0.42938300  0.31467141    -0.19900
H356        H  0.94848460  0.43856462  0.37724486     0.17900
H357        H  0.89957594  0.57957840  0.33757041     0.17900
F358        F  0.93971041  0.58941289  0.39949015    -0.19900
C359        C  0.94500555  0.51916291  0.14635917    -0.21300
C360        C  0.94020974  0.50623728  0.09769830    -0.09300
C361        C  0.91411470  0.49090729  0.08422750     0.29500
C362        C  0.89310516  0.48853281  0.11934993    -0.21300
C363        C  0.89791588  0.50107829  0.16845572    -0.09300
C364        C  0.92428181  0.51614227  0.18160080     0.29500
F365        F  0.93061550  0.52613236  0.22889182    -0.19900
H366        H  0.96514887  0.53035758  0.15741995     0.17900
H367        H  0.87302917  0.47726459  0.10809726     0.17900
F368        F  0.90886613  0.47906890  0.03695299    -0.19900
C369        C  0.68467969  0.64297087  0.08504990    -0.21300
C370        C  0.70755421  0.66054930  0.06049600    -0.09300
C371        C  0.71367136  0.64475439  0.01270438     0.29500
C372        C  0.69775350  0.61135966  0.99104355    -0.21300
C373        C  0.67523123  0.59360513  0.01600435    -0.09300
C374        C  0.66861589  0.60993364  0.06303959     0.29500
F375        F  0.64747026  0.59237793  0.08877184    -0.19900
H376        H  0.67938264  0.65430846  0.12173945     0.17900
H377        H  0.70311318  0.59907686  0.95472240     0.17900
F378        F  0.73511812  0.66113820  0.98683558    -0.19900
C379        C  0.65514812  0.40411636  0.42736687    -0.21300
C380        C  0.66796619  0.43454468  0.45956888    -0.09300
C381        C  0.69342937  0.42185650  0.48005134     0.29500
C382        C  0.70724868  0.38384136  0.46266713    -0.21300
C383        C  0.69571687  0.35682103  0.42585692    -0.09300
C384        C  0.66896488  0.36628258  0.40991489     0.29500
F385        F  0.65611616  0.33919585  0.37720454    -0.19900
H386        H  0.63445899  0.40989383  0.41463576     0.17900
H387        H  0.72734390  0.37619450  0.47730506     0.17900
F388        F  0.69948179  0.44151779  0.01980673    -0.19900
C389        C  0.29033302  0.36302853  0.46477526    -0.21300
C390        C  0.30191686  0.33605647  0.42770829    -0.09300
C391        C  0.32911871  0.34373261  0.41338945     0.29500
C392        C  0.34322263  0.38041581  0.43198250    -0.21300
C393        C  0.33024006  0.41145999  0.46353607    -0.09300
C394        C  0.30446271  0.39995923  0.48325177     0.29500
F395        F  0.29271996  0.42075560  0.02911559    -0.19900
H396        H  0.27002922  0.35619035  0.47878025     0.17900
H397        H  0.36408044  0.38549410  0.41984578     0.17900
F398        F  0.34207808  0.31620801  0.38092797    -0.19900
C399        C  0.30205316  0.58966616  0.49397881    -0.21300
C400        C  0.32260351  0.57283966  0.02178970    -0.09300
C401        C  0.33199004  0.59549154  0.06378062     0.29500
C402        C  0.31693573  0.63137591  0.08308505    -0.21300
C403        C  0.29243063  0.64536652  0.06061423    -0.09300
C404        C  0.28363110  0.62329379  0.01755870     0.29500
F405        F  0.26426258  0.63899568  0.48892617    -0.19900
H406        H  0.29477133  0.57304681  0.46105698     0.17900
H407        H  0.32422813  0.64765297  0.11618379     0.17900
F408        F  0.35489460  0.58154556  0.08758945    -0.19900
C409        C  0.39436976  0.55420824  0.36793156    -0.21300
C410        C  0.39691198  0.52384040  0.40670897    -0.09300
C411        C  0.42123161  0.49926570  0.41240334     0.29500
C412        C  0.44256575  0.50430248  0.37920226    -0.21300
C413        C  0.43999905  0.53365556  0.33954806    -0.09300
C414        C  0.41592791  0.55932015  0.33438370     0.29500
F415        F  0.41256241  0.58682018  0.29533271    -0.19900
H416        H  0.37541348  0.57254621  0.36267615     0.17900
H417        H  0.46091088  0.48417070  0.38367219     0.17900
F418        F  0.42381970  0.46860745  0.44868606    -0.19900
C419        C  0.40005378  0.47348189  0.10816687    -0.21300
C420        C  0.40039453  0.49774169  0.06406987    -0.09300
C421        C  0.42191571  0.52820325  0.05605382     0.29500
C422        C  0.44201698  0.53468408  0.09170835    -0.21300
C423        C  0.44163171  0.51024519  0.13531591    -0.09300
C424        C  0.42056908  0.47941231  0.14337281     0.29500
F425        F  0.41927541  0.45626909  0.18606069    -0.19900
H426        H  0.38360916  0.45049839  0.11594298     0.17900
H427        H  0.45832564  0.55820174  0.08475004     0.17900
F428        F  0.42437209  0.55085843  0.01331116    -0.19900
C429        C  0.57781884  0.57498237  0.33766980    -0.21300
C430        C  0.55488285  0.54761739  0.34444497    -0.09300
C431        C  0.55273963  0.52207935  0.38740749     0.29500
C432        C  0.57385670  0.52221791  0.42181592    -0.21300
C433        C  0.59764040  0.54699785  0.41342795    -0.09300
C434        C  0.59937535  0.57412356  0.37166183     0.29500
F435        F  0.62255991  0.59731735  0.36224851    -0.19900
H436        H  0.57985281  0.59453969  0.30453495     0.17900
H437        H  0.57250811  0.50045291  0.45337544     0.17900
F438        F  0.53069872  0.49557210  0.39508815    -0.19900
C439        C  0.57811174  0.54724801  0.05851474    -0.21300
C440        C  0.59968522  0.51613288  0.06297642    -0.09300
C441        C  0.60056068  0.48865277  0.10485736     0.29500
C442        C  0.57993968  0.49171820  0.14043125    -0.21300
C443        C  0.55859553  0.52301902  0.13579936    -0.09300
C444        C  0.55799116  0.55113510  0.09473852     0.29500
F445        F  0.53741156  0.58131687  0.08866705    -0.19900
H446        H  0.57630217  0.56822423  0.02643687     0.17900
H447        H  0.58094743  0.47015352  0.17223695     0.17900
F448        F  0.62164489  0.45978358  0.11245304    -0.19900
C449        C  0.70328599  0.09006924  0.46790260    -0.21300
C450        C  0.67470851  0.08502633  0.46335582    -0.09300
C451        C  0.65951677  0.12071731  0.44277542     0.29500
C452        C  0.67278974  0.15789638  0.42327194    -0.21300
C453        C  0.70132759  0.16146511  0.42594394    -0.09300
C454        C  0.71639867  0.12782237  0.44964556     0.29500
F455        F  0.74408138  0.13033403  0.45315326    -0.19900
H456        H  0.71601111  0.06523994  0.48511992     0.17900
H457        H  0.66074657  0.18394921  0.40602483     0.17900
F458        F  0.63177998  0.11894619  0.43992449    -0.19900
C459        C  0.66866414  0.90422538  0.06711864    -0.21300
C460        C  0.67661209  0.92196112  0.02183316    -0.09300
C461        C  0.69886362  0.90278950  0.99647671     0.29500
C462        C  0.71346872  0.86725530  0.01703145    -0.21300
C463        C  0.70635511  0.85045803  0.06349076    -0.09300
C464        C  0.68346005  0.86902339  0.08811291     0.29500
F465        F  0.67578640  0.85430423  0.13311947    -0.19900
H466        H  0.65170299  0.91898562  0.08727660     0.17900
H467        H  0.73075245  0.85356173  0.99690903     0.17900
F468        F  0.70662397  0.91875004  0.95201421    -0.19900
C469        C  0.32343682  0.86558334  0.00255350    -0.21300
C470        C  0.32355582  0.90789796  0.02568280    -0.09300
C471        C  0.30663966  0.91443720  0.06742556     0.29500
C472        C  0.29092399  0.87968994  0.08601218    -0.21300
C473        C  0.29116962  0.83780519  0.06320356    -0.09300
C474        C  0.30733183  0.83086814  0.02112485     0.29500
F475        F  0.30831737  0.79006282  0.99914205    -0.19900
H476        H  0.33244251  0.86422630  0.46646484     0.17900
H477        H  0.27844201  0.88552211  0.11846260     0.17900
F478        F  0.30576168  0.95449116  0.09111323    -0.19900
C479        C  0.29481182  0.12745728  0.47709731    -0.21300
C480        C  0.30330430  0.14491857  0.43171333    -0.09300
C481        C  0.32640659  0.12584806  0.40824252     0.29500
C482        C  0.33972398  0.08900119  0.42866300    -0.21300
C483        C  0.33018694  0.07013731  0.47232749    -0.09300
C484        C  0.30805657  0.09027871  0.49721281     0.29500
F485        F  0.29867843  0.06892720  0.04325194    -0.19900
H486        H  0.27736373  0.14166693  0.49636991     0.17900
H487        H  0.35672401  0.07378775  0.40897219     0.17900
F488        F  0.33560950  0.14149471  0.36456051    -0.19900
C489        C  0.40629031  0.03740207  0.10155943    -0.21300
C490        C  0.40322849  0.00057791  0.07016702    -0.09300
C491        C  0.42299702  0.96638221  0.06988605     0.29500
C492        C  0.44445947  0.96729301  0.10331972    -0.21300
C493        C  0.44668714  0.00245262  0.13736621    -0.09300
C494        C  0.42803826  0.03854952  0.13506201     0.29500
F495        F  0.42970919  0.07331560  0.16713635    -0.19900
H496        H  0.39110706  0.06393852  0.10187845     0.17900
H497        H  0.45887731  0.93964072  0.10359685     0.17900
F498        F  0.42070821  0.93093024  0.03881094    -0.19900
C499        C  0.42041567  0.95244107  0.33987008    -0.21300
C500        C  0.44261252  0.98142126  0.34626650    -0.09300
C501        C  0.44374194  0.00802288  0.38882927     0.29500
C502        C  0.42306363  0.00563490  0.42422625    -0.21300
C503        C  0.40011048  0.97796296  0.41742606    -0.09300
C504        C  0.39911742  0.95114703  0.37451688     0.29500
F505        F  0.37727306  0.92482958  0.36475043    -0.19900
H506        H  0.41910416  0.93184556  0.30712027     0.17900
H507        H  0.42549147  0.02529793  0.45732598     0.17900
F508        F  0.46527277  0.03558538  0.39689744    -0.19900
C509        C  0.58139310  0.01322862  0.42131817    -0.21300
C510        C  0.60171727  0.98006283  0.41928413    -0.06900
C511        C  0.59913622  0.94427815  0.38621275     0.29500
C512        C  0.57719132  0.94354853  0.35305175    -0.21300
C513        C  0.55800220  0.97883947  0.35249055    -0.09300
C514        C  0.55975752  0.01284963  0.38820698     0.29500
F515        F  0.54108298  0.04663164  0.39014479    -0.19900
H516        H  0.58314198  0.04086900  0.44704650     0.17900
H517        H  0.57608913  0.91685092  0.32607384     0.17900
F518        F  0.61860434  0.91176480  0.38403051    -0.19900
C519        C  0.58034323  0.98042722  0.06275947    -0.21300
C520        C  0.60336509  0.00759961  0.07057309    -0.09300
C521        C  0.60534716  0.03149074  0.11522132     0.29500
C522        C  0.58461517  0.02838701  0.15068918    -0.21300
C523        C  0.56201198  0.00049486  0.14300595    -0.09300
C524        C  0.56005777  0.97643215  0.09872444     0.29500
F525        F  0.53809838  0.95006946  0.08959329    -0.19900
H526        H  0.57775870  0.96247340  0.02846420     0.17900
H527        H  0.58656617  0.04688984  0.18482385     0.17900
F528        F  0.62771155  0.05647552  0.12557055    -0.19900
O529        O  0.52883989  0.02452621  0.80193260    -0.74400
O530        O  0.47565250  0.03884983  0.70002783    -0.74400
O531        O  0.47373301  0.02651959  0.79885636    -0.74500
O532        O  0.53134066  0.03675902  0.70340204    -0.74500
O533        O  0.53073350  0.96290252  0.69201494    -0.74500
O534        O  0.47303474  0.95272588  0.78699281    -0.74500
O535        O  0.47575131  0.96499874  0.68873986    -0.74400
O536        O  0.52867789  0.95067020  0.79089510    -0.74500
Ni537      Ni  0.50241761  0.03431804  0.75142203     1.25400
Ni538      Ni  0.50205179  0.95520917  0.73932180     1.25400
C539        C  0.53735882  0.98542657  0.81354033     0.87800
C540        C  0.46700965  0.00403913  0.67743968     0.87700
C541        C  0.46398123  0.98793557  0.80873136     0.87700
C542        C  0.54030154  0.00146784  0.68163834     0.87900
C543        C  0.34232262  0.94876747  0.51088606     0.86500
C544        C  0.32602035  0.98895583  0.99891458    -0.53700
C545        C  0.34194334  0.02516760  0.98991024     0.09400
C546        C  0.37283515  0.01532236  0.99174300     0.20400
C547        C  0.36135348  0.94003505  0.96458978    -0.54500
C548        C  0.37760740  0.97648841  0.95516576     0.09500
C549        C  0.36199115  0.96198248  0.55222756    -0.54000
C550        C  0.37801242  0.99774941  0.54196774     0.10100
H551        H  0.30379215  0.99022019  0.99744613     0.14600
H552        H  0.38530106  0.04554195  0.98522535     0.00400
H553        H  0.36324377  0.90930096  0.94377140     0.14900
H554        H  0.36467166  0.94226173  0.58532873     0.14700
C555        C  0.66039095  0.04085165  0.97827239     0.86500
C556        C  0.64306380  0.02309250  0.93552897    -0.53700
C557        C  0.62760307  0.98676539  0.94653628     0.09400
C558        C  0.63154747  0.97110292  0.49942805     0.20400
C559        C  0.63965599  0.04889546  0.52066353    -0.54500
C560        C  0.62475544  0.01171874  0.53226160     0.09500
C561        C  0.67806268  0.00031054  0.99296058    -0.54000
C562        C  0.66264917  0.96461814  0.50430497     0.10100
H563        H  0.64067275  0.04086961  0.90106830     0.14600
H564        H  0.61990554  0.94038568  0.50798703     0.00400
H565        H  0.63677554  0.08094749  0.53883124     0.14900
H566        H  0.70015712  0.99982422  0.99537555     0.14700
O567        O  0.52734720  0.49037190  0.69904820    -0.74400
O568        O  0.47055448  0.49664752  0.79495543    -0.74400
O569        O  0.47203390  0.48326772  0.69704396    -0.74500
O570        O  0.52521528  0.50400340  0.79726362    -0.74500
O571        O  0.52189204  0.57756205  0.78535338    -0.74500
O572        O  0.46855502  0.55675245  0.68472604    -0.74500
O573        O  0.46616421  0.57009097  0.78331922    -0.74400
O574        O  0.52354395  0.56376153  0.68665652    -0.74500
Ni575      Ni  0.49893348  0.49101930  0.74743045     1.25400
Ni576      Ni  0.49490404  0.56976206  0.73467128     1.25400
C577        C  0.53472494  0.52587487  0.67678734     0.87800
C578        C  0.45901512  0.53407270  0.80502193     0.87700
C579        C  0.46156009  0.51662303  0.67441633     0.87700
C580        C  0.53223993  0.54402601  0.80792249     0.87900
C581        C  0.34250233  0.45484025  0.97887660     0.86500
C582        C  0.35741863  0.47357481  0.93353474    -0.53700
C583        C  0.37113303  0.51225598  0.94195261     0.09400
C584        C  0.37043772  0.53028683  0.49082808     0.20400
C585        C  0.36636337  0.45237971  0.51421795    -0.54500
C586        C  0.38014541  0.49137856  0.52317582     0.09500
C587        C  0.32351365  0.49353357  0.99447943    -0.54000
C588        C  0.33951683  0.53353394  0.49980053     0.10100
H589        H  0.35904173  0.45619754  0.89851497     0.14600
H590        H  0.38073634  0.56265583  0.49724911     0.00400
H591        H  0.37084924  0.42137209  0.53315555     0.14900
H592        H  0.30145330  0.49122874  0.99764806     0.14700
C593        C  0.65352013  0.47922434  0.96600053     0.86500
C594        C  0.67307063  0.51716964  0.98020756    -0.53700
C595        C  0.65815322  0.55549321  0.50075598     0.09400
C596        C  0.62689699  0.55185214  0.49546068     0.20400
C597        C  0.63299762  0.47332562  0.51516456    -0.54500
C598        C  0.61902493  0.51169999  0.52743852     0.09500
C599        C  0.63584294  0.50004718  0.92523261    -0.54000
C600        C  0.62235498  0.53806721  0.93886619     0.10100
H601        H  0.69522281  0.51394370  0.98013219     0.14600
H602        H  0.61614073  0.58360965  0.50448182     0.00400
H603        H  0.62928659  0.44135111  0.53240119     0.14900
H604        H  0.63236256  0.48501119  0.88946935     0.14700
O605        O  0.97091024  0.46565048  0.54435910    -0.74400
O606        O  0.03042520  0.47220605  0.95019893    -0.74400
O607        O  0.02644819  0.46079591  0.55146815    -0.74500
O608        O  0.97543059  0.47726727  0.94458105    -0.74500
O609        O  0.97670916  0.55144028  0.95178557    -0.74500
O610        O  0.02923954  0.53496686  0.55452123    -0.74500
O611        O  0.03248785  0.54641309  0.95639919    -0.74400
O612        O  0.97372384  0.53987519  0.55015680    -0.74500
Ni613      Ni  0.00097082  0.46870884  0.99649802     1.25400
Ni614      Ni  0.00323969  0.54812248  0.00387374     1.25400
C615        C  0.96250812  0.50293880  0.56227497     0.87800
C616        C  0.04116173  0.50945889  0.93788162     0.87700
C617        C  0.03672919  0.49638016  0.56995126     0.87700
C618        C  0.96734378  0.51608165  0.93117734     0.87900
C619        C  0.16249175  0.44631672  0.75959948     0.86500
C620        C  0.14700551  0.46164702  0.80609080    -0.53700
C621        C  0.13072389  0.49816182  0.79997130     0.09400
C622        C  0.13242532  0.51812749  0.74819642     0.20400
C623        C  0.14024671  0.44195520  0.71971657    -0.54500
C624        C  0.12425168  0.47947483  0.71367527     0.09500
C625        C  0.17890546  0.48789535  0.74503838    -0.54000
C626        C  0.16315956  0.52509635  0.73826351     0.10100
H627        H  0.14672801  0.44274837  0.84005032     0.14600
H628        H  0.12000615  0.54908447  0.74489126     0.00400
H629        H  0.13805838  0.41185087  0.69778416     0.14900
H630        H  0.20091177  0.48912001  0.74077029     0.14700
C631        C  0.84032714  0.46839686  0.76062315     0.86500
C632        C  0.82504634  0.51271248  0.75476782    -0.53700
C633        C  0.84150652  0.54861584  0.74765959     0.09400
C634        C  0.87230257  0.53700243  0.74722414     0.20400
C635        C  0.85854330  0.46467270  0.71393998    -0.54500
C636        C  0.87566401  0.50051947  0.70741356     0.09500
C637        C  0.86096947  0.47625235  0.80206592    -0.54000
C638        C  0.87771176  0.51179606  0.79525886     0.10100
H639        H  0.80283179  0.51501666  0.75388195     0.14600
H640        H  0.88549574  0.56664945  0.74204430     0.00400
H641        H  0.85937776  0.43572445  0.68991283     0.14900
H642        H  0.86334064  0.45365795  0.83294101     0.14700
O643        O  0.96958406  0.01475013  0.95396174    -0.74400
O644        O  0.02827182  0.02614300  0.55525020    -0.74400
O645        O  0.02480169  0.01499015  0.95105529    -0.74500
O646        O  0.97311037  0.03074264  0.55737594    -0.74500
O647        O  0.97086998  0.95647035  0.55887658    -0.74500
O648        O  0.02572958  0.94104303  0.95965891    -0.74500
O649        O  0.02671262  0.95185596  0.55705086    -0.74400
O650        O  0.97010738  0.94063105  0.96300622    -0.74500
Ni651      Ni  0.99814200  0.02304154  0.00144033     1.25400
Ni652      Ni  0.99851730  0.94380994  0.01105866     1.25400
C653        C  0.96044416  0.97590156  0.94309799     0.87800
C654        C  0.03698562  0.98884313  0.57213047     0.87700
C655        C  0.03413944  0.97658138  0.93840002     0.87700
C656        C  0.96288966  0.99488926  0.57472007     0.87900
C657        C  0.16143826  0.02472327  0.76802824     0.86500
C658        C  0.17648779  0.98048796  0.75895887    -0.53700
C659        C  0.15963920  0.94514848  0.75097605     0.09400
C660        C  0.12893192  0.95674192  0.75374610     0.20400
C661        C  0.14225760  0.02964565  0.72293445    -0.54500
C662        C  0.12486958  0.99422610  0.71599308     0.09500
C663        C  0.14169235  0.01576447  0.81061674    -0.54000
C664        C  0.12470949  0.98044982  0.80334465     0.10100
H665        H  0.19862602  0.97792952  0.75575590     0.14600
H666        H  0.11527113  0.92759330  0.74871342     0.00400
H667        H  0.14194737  0.05810172  0.69880077     0.14900
H668        H  0.13986969  0.03772077  0.84242858     0.14700
C669        C  0.84136137  0.04628476  0.77260537     0.86500
C670        C  0.85763264  0.02841584  0.81687342    -0.53700
C671        C  0.87249283  0.99072828  0.80733802     0.09400
C672        C  0.86901661  0.97288741  0.75475187     0.20400
C673        C  0.86259943  0.05045073  0.73102691    -0.54500
C674        C  0.87727899  0.01207683  0.72179799     0.09500
C675        C  0.82342298  0.00639966  0.75786800    -0.54000
C676        C  0.83793333  0.96845873  0.74771622     0.10100
H677        H  0.85851717  0.04482911  0.85244889     0.14600
H678        H  0.88058701  0.94140962  0.74799712     0.00400
H679        H  0.86540531  0.08110138  0.71058408     0.14900
H680        H  0.80125765  0.00755250  0.75538378     0.14700
O681        O  0.73331787  0.30576131  0.92837192    -0.74400
O682        O  0.78198397  0.21936098  0.87214477    -0.74400
O683        O  0.77799656  0.30953321  0.87095564    -0.74500
O684        O  0.73724430  0.21541319  0.92966077    -0.74500
O685        O  0.70991191  0.21280879  0.86407564    -0.74500
O686        O  0.75295993  0.30391674  0.80263572    -0.74500
O687        O  0.75519112  0.21340277  0.80625571    -0.74400
O688        O  0.70772973  0.30331899  0.86067253    -0.74500
Ni689      Ni  0.75854812  0.26262795  0.90261546     1.25400
Ni690      Ni  0.73046032  0.25822323  0.83098287     1.25400
C691        C  0.71279261  0.31958997  0.90337553     0.87800
C692        C  0.77654902  0.20161404  0.83037979     0.87700
C693        C  0.77224186  0.32222843  0.82730945     0.87700
C694        C  0.71698566  0.19841699  0.90652416     0.87900
O695        O  0.78634209  0.80276753  0.62570415    -0.74400
O696        O  0.74333808  0.71078579  0.56660515    -0.74400
O697        O  0.74237133  0.80081094  0.56587774    -0.74500
O698        O  0.78772350  0.71255186  0.62678068    -0.74500
O699        O  0.76014691  0.71222718  0.69196531    -0.74500
O700        O  0.71490899  0.80137906  0.63125326    -0.74500
O701        O  0.71561763  0.71107930  0.63160341    -0.74400
O702        O  0.75904035  0.80256977  0.69136838    -0.74500
Ni703      Ni  0.76592691  0.75660611  0.59398161     1.25400
Ni704      Ni  0.73644753  0.75672270  0.66391357     1.25400
C705        C  0.77968580  0.81811438  0.66813879     0.87800
C706        C  0.72202322  0.69634421  0.58874654     0.87700
C707        C  0.72124123  0.81597012  0.58855447     0.87700
C708        C  0.78167980  0.69804778  0.66960701     0.87900
O709        O  0.26437673  0.19453864  0.93633294    -0.74400
O710        O  0.21838364  0.27944831  0.87034414    -0.74400
O711        O  0.22124210  0.18898717  0.87503796    -0.74500
O712        O  0.26171092  0.28477214  0.93283616    -0.74500
O713        O  0.29060598  0.28261562  0.86944059    -0.74500
O714        O  0.24850436  0.18977766  0.80911997    -0.74500
O715        O  0.24741569  0.28026328  0.80707948    -0.74400
O716        O  0.29184760  0.19265655  0.87096517    -0.74500
Ni717      Ni  0.24035681  0.23707992  0.90589052     1.25400
Ni718      Ni  0.27058074  0.23636237  0.83685878     1.25400
C719        C  0.28559513  0.17908025  0.91405069     0.87800
C720        C  0.22541847  0.29407823  0.82795728     0.87700
C721        C  0.22832489  0.17344083  0.83295979     0.87700
C722        C  0.28329544  0.29876826  0.91120722     0.87900
O723        O  0.21312126  0.69318814  0.61752474    -0.74400
O724        O  0.25567643  0.78668037  0.56012294    -0.74400
O725        O  0.25733123  0.69657539  0.55788571    -0.74500
O726        O  0.21136056  0.78369362  0.62024237    -0.74500
O727        O  0.23818329  0.78228232  0.68646205    -0.74500
O728        O  0.28522287  0.69736229  0.62257592    -0.74500
O729        O  0.28228938  0.78793890  0.62676974    -0.74400
O730        O  0.24093886  0.69230229  0.68232851    -0.74500
Ni731      Ni  0.23338885  0.74006725  0.58662220     1.25400
Ni732      Ni  0.26267408  0.73996227  0.65682372     1.25400
C733        C  0.22004289  0.67715003  0.65934240     0.87800
C734        C  0.27582472  0.80286332  0.58427622     0.87700
C735        C  0.27880640  0.68238944  0.57991888     0.87700
C736        C  0.21709057  0.79717859  0.66380206     0.87900
C737        C  0.81206641  0.88147480  0.65911420    -0.21300
C738        C  0.79572777  0.85499240  0.68978603    -0.09300
C739        C  0.79420070  0.86540648  0.74031986     0.29500
C740        C  0.80863539  0.90178237  0.75933912    -0.21300
C741        C  0.82466773  0.92814051  0.72839569    -0.09300
C742        C  0.82618321  0.91804431  0.67811871     0.29500
F743        F  0.84007128  0.94494616  0.64697563    -0.19900
H744        H  0.81321071  0.87480020  0.61995677     0.17900
H745        H  0.80704972  0.90980503  0.79815917     0.17900
F746        F  0.77879413  0.84062582  0.77134061    -0.19900
C747        C  0.78650580  0.13926920  0.77104099    -0.21300
C748        C  0.79477358  0.16601788  0.81086916    -0.09300
C749        C  0.82020465  0.15715925  0.83303609     0.29500
C750        C  0.83573891  0.12026533  0.81836480    -0.21300
C751        C  0.82594198  0.09000745  0.78272976    -0.09300
C752        C  0.80210351  0.10208521  0.75646105     0.29500
F753        F  0.79373687  0.07824172  0.71673334    -0.19900
H754        H  0.76758249  0.14643520  0.75181167     0.17900
H755        H  0.85543322  0.11550481  0.83570664     0.17900
F756        F  0.83010284  0.18376637  0.86939707    -0.19900
C757        C  0.18539110  0.87373851  0.75999126    -0.21300
C758        C  0.17054463  0.90321869  0.73026749    -0.09300
C759        C  0.16968920  0.89611866  0.67929360     0.29500
C760        C  0.18385532  0.86022625  0.65823582    -0.21300
C761        C  0.19962519  0.83147340  0.68754952    -0.09300
C762        C  0.19981351  0.83792784  0.73891676     0.29500
F763        F  0.21429561  0.81024148  0.76864801    -0.19900
H764        H  0.18651749  0.87937813  0.79930868     0.17900
H765        H  0.18364459  0.85638040  0.61861995     0.17900
F766        F  0.15698738  0.92587421  0.64945084    -0.19900
C767        C  0.18323800  0.10194008  0.75210528    -0.21300
C768        C  0.18095732  0.06283663  0.78061505    -0.09300
C769        C  0.19666545  0.05980866  0.82409858     0.29500
C770        C  0.21218899  0.09586981  0.84039805    -0.21300
C771        C  0.21339577  0.13510465  0.81292842    -0.09300
C772        C  0.19949267  0.13762409  0.76800652     0.29500
F773        F  0.20059802  0.17536980  0.74068680    -0.19900
H774        H  0.17245945  0.10589733  0.71803216     0.17900
H775        H  0.22320018  0.09327810  0.87476933     0.17900
F776        F  0.19618999  0.02234609  0.85199525    -0.19900
C777        C  0.09478461  0.95211318  0.65708138    -0.21300
C778        C  0.10271174  0.99302736  0.67830269    -0.09300
C779        C  0.08821648  0.03199609  0.66528561     0.29500
C780        C  0.06700145  0.03004513  0.63098146    -0.21300
C781        C  0.05929830  0.98928715  0.60923676    -0.09300
C782        C  0.07335478  0.95009923  0.62299080     0.29500
F783        F  0.06670902  0.90986035  0.60325765    -0.19900
H784        H  0.10527385  0.92137617  0.66651030     0.17900
H785        H  0.05630295  0.06074561  0.62192654     0.17900
F786        F  0.09358124  0.07183946  0.68714618    -0.19900
C787        C  0.07277425  0.93683518  0.89465356    -0.21300
C788        C  0.05531595  0.97427793  0.89941241    -0.09300
C789        C  0.05946364  0.01121754  0.86845277     0.29500
C790        C  0.08152339  0.01177714  0.83611136    -0.21300
C791        C  0.09981372  0.97565116  0.83348617    -0.09300
C792        C  0.09493205  0.93746119  0.86171816     0.29500
F793        F  0.11231476  0.90195564  0.85928617    -0.19900
H794        H  0.06994887  0.90790886  0.91775566     0.17900
H795        H  0.08477108  0.04109392  0.81372445     0.17900
F796        F  0.04253473  0.04736961  0.86990571    -0.19900
C797        C  0.91099502  0.97096349  0.92511478    -0.21300
C798        C  0.93800708  0.97195048  0.90790942    -0.09300
C799        C  0.94320314  0.97205082  0.85723920     0.29500
C800        C  0.92140133  0.97382527  0.82406351    -0.21300
C801        C  0.89431815  0.97622100  0.84129225    -0.09300
C802        C  0.88919344  0.97317888  0.89205066     0.29500
F803        F  0.86317361  0.97453258  0.90965728    -0.19900
H804        H  0.90683924  0.97047917  0.96426096     0.17900
H805        H  0.92576450  0.97663036  0.78514067     0.17900
F806        F  0.96931049  0.97261899  0.84008032    -0.19900
C807        C  0.93784227  0.03893368  0.63907871    -0.21300
C808        C  0.94146064  0.99850333  0.61318512    -0.09300
C809        C  0.92408202  0.96256417  0.62382484     0.29500
C810        C  0.90339126  0.96740634  0.65900326    -0.21300
C811        C  0.89940317  0.00806410  0.68427326    -0.09300
C812        C  0.91722443  0.04368936  0.67445416     0.29500
F813        F  0.91549495  0.08259524  0.70015518    -0.19900
H814        H  0.95121240  0.06696628  0.63230587     0.17900
H815        H  0.89028034  0.93917003  0.66584190     0.17900
F816        F  0.92655795  0.92301121  0.59951921    -0.19900
C817        C  0.79031359  0.39852399  0.83495596    -0.21300
C818        C  0.78763667  0.35973665  0.80664801    -0.09300
C819        C  0.80062890  0.35695105  0.76065322     0.29500
C820        C  0.81734151  0.39195490  0.74450703    -0.21300
C821        C  0.82087909  0.43054798  0.77377857    -0.09300
C822        C  0.80621058  0.43380626  0.81851300     0.29500
F823        F  0.80797552  0.47085766  0.84738033    -0.19900
H824        H  0.78006266  0.40144487  0.87023953     0.17900
H825        H  0.82752920  0.38813214  0.70945556     0.17900
F826        F  0.79818539  0.31962305  0.73248702    -0.19900
C827        C  0.83846822  0.61255715  0.69003546    -0.21300
C828        C  0.82978125  0.59239621  0.73360280    -0.09300
C829        C  0.80710551  0.61039422  0.75891816     0.29500
C830        C  0.79218515  0.64587971  0.73887284    -0.21300
C831        C  0.79954704  0.66399778  0.69317636    -0.09300
C832        C  0.82352318  0.64793981  0.66977839     0.29500
F833        F  0.83199889  0.66496983  0.62626900    -0.19900
H834        H  0.85584172  0.59904519  0.66994970     0.17900
H835        H  0.77426863  0.65805772  0.75838615     0.17900
F836        F  0.79883686  0.59259118  0.80221386    -0.19900
C837        C  0.19293879  0.59147964  0.74959263    -0.21300
C838        C  0.17509530  0.56694263  0.71977218    -0.09300
C839        C  0.17136865  0.57947985  0.67060057     0.29500
C840        C  0.18551238  0.61600710  0.65153730    -0.21300
C841        C  0.20389396  0.64028933  0.68100357    -0.09300
C842        C  0.20716304  0.62795852  0.73063335     0.29500
F843        F  0.22424845  0.65077899  0.76086505    -0.19900
H844        H  0.19625056  0.58174380  0.78744386     0.17900
H845        H  0.18273785  0.62434012  0.61315240     0.17900
F846        F  0.15537537  0.55481947  0.64020893    -0.19900
C847        C  0.16539999  0.36869387  0.79548552    -0.21300
C848        C  0.17823133  0.40255153  0.76810635    -0.09300
C849        C  0.20539323  0.39465689  0.75204266     0.29500
C850        C  0.22027610  0.35811300  0.77003015    -0.21300
C851        C  0.20838392  0.32836296  0.80345616    -0.09300
C852        C  0.18038016  0.33276364  0.81414786     0.29500
F853        F  0.16752260  0.30282426  0.84333028    -0.19900
H854        H  0.14391993  0.37142338  0.80505910     0.17900
H855        H  0.24146710  0.35399408  0.75900879     0.17900
F856        F  0.21755025  0.42081224  0.71802181    -0.19900
C857        C  0.06477336  0.45052526  0.62821374    -0.21300
C858        C  0.05802848  0.49255541  0.60864449    -0.09300
C859        C  0.07258375  0.53015832  0.62514026     0.29500
C860        C  0.09395351  0.52535798  0.65879325    -0.21300
C861        C  0.10119310  0.48324189  0.67772799    -0.09300
C862        C  0.08584475  0.44582778  0.66265809     0.29500
F863        F  0.09046723  0.40478864  0.68193596    -0.19900
H864        H  0.05366755  0.42102523  0.61694408     0.17900
H865        H  0.10508248  0.55500704  0.66902679     0.17900
F866        F  0.06666653  0.57167129  0.60818219    -0.19900
C867        C  0.06413313  0.47585878  0.86488501    -0.21300
C868        C  0.06361564  0.50922787  0.90131626    -0.09300
C869        C  0.08491567  0.54080083  0.90281581     0.29500
C870        C  0.10646021  0.53836206  0.86864137    -0.21300
C871        C  0.10687431  0.50463365  0.83270171    -0.09300
C872        C  0.08544914  0.47361109  0.83083613     0.29500
F873        F  0.08555374  0.44032074  0.79671950    -0.19900
H874        H  0.04799722  0.45125552  0.86286269     0.17900
H875        H  0.12315820  0.56190731  0.87105064     0.17900
F876        F  0.08560824  0.57252554  0.93862529    -0.19900
C877        C  0.94301373  0.48218713  0.86049734    -0.21300
C878        C  0.94652046  0.51901940  0.89197906    -0.09300
C879        C  0.92870112  0.55605803  0.88768272     0.29500
C880        C  0.90688782  0.55483079  0.85419528    -0.21300
C881        C  0.90266807  0.51673618  0.82510965    -0.09300
C882        C  0.92135664  0.48097835  0.82742583     0.29500
F883        F  0.91820940  0.44427936  0.79843017    -0.19900
H884        H  0.95667055  0.45358014  0.86235506     0.17900
H885        H  0.89258304  0.58259066  0.85262253     0.17900
F886        F  0.93131080  0.59213951  0.91769673    -0.19900
C887        C  0.94444996  0.52036334  0.64537745    -0.21300
C888        C  0.93993511  0.50323655  0.59819889    -0.09300
C889        C  0.91416919  0.48550876  0.58643502     0.29500
C890        C  0.89321144  0.48503283  0.62175942    -0.21300
C891        C  0.89774249  0.50182362  0.66944811    -0.09300
C892        C  0.92380371  0.51921007  0.68090656     0.29500
F893        F  0.93000080  0.53329660  0.72697487    -0.19900
H894        H  0.96435480  0.53347227  0.65518621     0.17900
H895        H  0.87339350  0.47178209  0.61174879     0.17900
F896        F  0.90914619  0.46955882  0.54054167    -0.19900
C897        C  0.68141804  0.64550102  0.58893137    -0.21300
C898        C  0.70452374  0.66240413  0.56444951    -0.09300
C899        C  0.71061774  0.64634275  0.51679435     0.29500
C900        C  0.69478770  0.61270189  0.49556887    -0.21300
C901        C  0.67234916  0.59500471  0.52078796    -0.09300
C902        C  0.66537842  0.61223580  0.56725695     0.29500
F903        F  0.64404362  0.59515815  0.59289174    -0.19900
H904        H  0.67601799  0.65736481  0.62537716     0.17900
H905        H  0.70030659  0.59987125  0.45954733     0.17900
F906        F  0.73207911  0.66247791  0.49077105    -0.19900
C907        C  0.65686625  0.40698689  0.91551367    -0.21300
C908        C  0.66747683  0.43496911  0.95269487    -0.09300
C909        C  0.69042930  0.41951365  0.97927368     0.29500
C910        C  0.70456297  0.38116403  0.96399443    -0.21300
C911        C  0.69557574  0.35629600  0.92322120    -0.09300
C912        C  0.67083793  0.36847581  0.90052385     0.29500
F913        F  0.66008269  0.34337982  0.86366954    -0.19900
H914        H  0.63760201  0.41424547  0.89774695     0.17900
H915        H  0.72298721  0.37159679  0.98353499     0.17900
F916        F  0.70491445  0.44519963  0.51749790    -0.19900
C917        C  0.28903848  0.36084384  0.97250394    -0.21300
C918        C  0.29988581  0.33438565  0.93427184    -0.09300
C919        C  0.32671257  0.34265268  0.91811645     0.29500
C920        C  0.34106454  0.37933367  0.93614038    -0.21300
C921        C  0.32868802  0.40992323  0.96897526    -0.09300
C922        C  0.30342100  0.39782924  0.99039050     0.29500
F923        F  0.29308149  0.42313187  0.52115272    -0.19900
H924        H  0.26909225  0.35360474  0.98784264     0.17900
H925        H  0.36163654  0.38462726  0.92267555     0.17900
F926        F  0.33907589  0.31570847  0.88435296    -0.19900
C927        C  0.29855577  0.58725090  0.99868403    -0.21300
C928        C  0.32570123  0.57435859  0.51769523    -0.09300
C929        C  0.33509106  0.59664056  0.55990464     0.29500
C930        C  0.32019595  0.63269211  0.57921337    -0.21300
C931        C  0.29587709  0.64722743  0.55648232    -0.09300
C932        C  0.28732005  0.62592787  0.51280662     0.29500
F933        F  0.26022784  0.63552671  0.99422913    -0.19900
H934        H  0.29117269  0.57021114  0.96609811     0.17900
H935        H  0.32735543  0.64846262  0.61269995     0.17900
F936        F  0.35774492  0.58204817  0.58402146    -0.19900
C937        C  0.39131735  0.55296014  0.87055008    -0.21300
C938        C  0.39446008  0.52375940  0.91030106    -0.09300
C939        C  0.41931052  0.50075439  0.91664795     0.29500
C940        C  0.44058249  0.50631806  0.88334263    -0.21300
C941        C  0.43743072  0.53448539  0.84275757    -0.09300
C942        C  0.41278481  0.55849653  0.83681859     0.29500
F943        F  0.40880168  0.58464257  0.79684300    -0.19900
H944        H  0.37197364  0.57000802  0.86468676     0.17900
H945        H  0.45934616  0.48737421  0.88840578     0.17900
F946        F  0.42253073  0.47103205  0.95370866    -0.19900
C947        C  0.40103007  0.47102758  0.60430447    -0.21300
C948        C  0.40206014  0.49615722  0.56081636    -0.09300
C949        C  0.42358387  0.52692885  0.55472548     0.29500
C950        C  0.44261411  0.53365841  0.59217553    -0.21300
C951        C  0.44129787  0.50884487  0.63551599    -0.09300
C952        C  0.42063415  0.47691022  0.64112279     0.29500
F953        F  0.41874529  0.45271197  0.68300852    -0.19900
H954        H  0.38465788  0.44752798  0.61051079     0.17900
H955        H  0.45882218  0.55771838  0.58688121     0.17900
F956        F  0.42701716  0.54970900  0.51226089    -0.19900
C957        C  0.57592255  0.57746403  0.83748127    -0.21300
C958        C  0.55292147  0.55076252  0.84641505    -0.09300
C959        C  0.55144274  0.52612217  0.89007255     0.29500
C960        C  0.57332198  0.52623995  0.92291429    -0.21300
C961        C  0.59717510  0.55014204  0.91224770    -0.09300
C962        C  0.59820848  0.57659488  0.86989546     0.29500
F963        F  0.62143201  0.59882043  0.85820981    -0.19900
H964        H  0.57745853  0.59626517  0.80371699     0.17900
H965        H  0.57250902  0.50483980  0.95483994     0.17900
F966        F  0.52937694  0.50022071  0.89974218    -0.19900
C967        C  0.57563097  0.54522758  0.56082891    -0.21300
C968        C  0.59740369  0.51456103  0.56611204    -0.09300
C969        C  0.59831578  0.48788067  0.60862840     0.29500
C970        C  0.57773509  0.49157781  0.64422478    -0.21300
C971        C  0.55633980  0.52270863  0.63902362    -0.09300
C972        C  0.55552775  0.54975903  0.59709541     0.29500
F973        F  0.53479920  0.57953603  0.59030845    -0.19900
H974        H  0.57374098  0.56545811  0.52818719     0.17900
H975        H  0.57884567  0.47067636  0.67654816     0.17900
F976        F  0.61945046  0.45928770  0.61693019    -0.19900
C977        C  0.70367991  0.08919021  0.97051989    -0.21300
C978        C  0.67518166  0.08404936  0.96459862    -0.09300
C979        C  0.66028552  0.11978574  0.94338083     0.29500
C980        C  0.67386207  0.15697861  0.92444213    -0.21300
C981        C  0.70235416  0.16053445  0.92850378    -0.09300
C982        C  0.71705464  0.12688869  0.95283432     0.29500
F983        F  0.74468194  0.12939946  0.95756047    -0.19900
H984        H  0.71617288  0.06451727  0.98858156     0.17900
H985        H  0.66209900  0.18310015  0.90669053     0.17900
F986        F  0.63258791  0.11811085  0.93946474    -0.19900
C987        C  0.66708502  0.90573118  0.56782419    -0.21300
C988        C  0.67560631  0.92338584  0.52282929    -0.09300
C989        C  0.69786572  0.90374712  0.49797632     0.29500
C990        C  0.71203008  0.86798296  0.51893008    -0.21300
C991        C  0.70442205  0.85139116  0.56523997    -0.09300
C992        C  0.68142236  0.87025079  0.58919322     0.29500
F993        F  0.67320716  0.85553324  0.63388769    -0.19900
H994        H  0.65002449  0.92074229  0.58747909     0.17900
H995        H  0.72938304  0.85398136  0.49925752     0.17900
F996        F  0.70603472  0.91940556  0.45361453    -0.19900
C997        C  0.32173643  0.86981592  0.50072807    -0.21300
C998        C  0.32370931  0.91057373  0.52677566    -0.09300
C999        C  0.30811582  0.91576839  0.57031875     0.29500
C1000       C  0.29275552  0.88048226  0.58875809    -0.21300
C1001       C  0.29159526  0.83982347  0.56340759    -0.09300
C1002       C  0.30568757  0.83488537  0.51874272     0.29500
F1003       F  0.30468489  0.79571421  0.49343485    -0.19900
H1004       H  0.33598534  0.85846730  0.97069364     0.17900
H1005       H  0.28155649  0.88499437  0.62290037     0.17900
F1006       F  0.30821243  0.95492709  0.59579043    -0.19900
C1007       C  0.29405114  0.12462810  0.98189388    -0.21300
C1008       C  0.30252976  0.14386312  0.93740971    -0.09300
C1009       C  0.32625351  0.12687124  0.91404109     0.29500
C1010       C  0.33989423  0.08968745  0.93308550    -0.21300
C1011       C  0.33014583  0.06867384  0.97539192    -0.09300
C1012       C  0.30769468  0.08730955  0.00075056     0.29500
F1013       F  0.29906078  0.07365682  0.54060781    -0.19900
H1014       H  0.27622889  0.13740156  0.00125823     0.17900
H1015       H  0.35726720  0.07586725  0.91322482     0.17900
F1016       F  0.33576427  0.14491181  0.87173064    -0.19900
C1017       C  0.40494578  0.04083642  0.60395759    -0.21300
C1018       C  0.40312404  0.00531128  0.57040259    -0.09300
C1019       C  0.42392359  0.97284936  0.56854154     0.29500
C1020       C  0.44533980  0.97414961  0.60210307    -0.21300
C1021       C  0.44647656  0.00793514  0.63799073    -0.09300
C1022       C  0.42665611  0.04239514  0.63760997     0.29500
F1023       F  0.42715407  0.07564423  0.67172363    -0.19900
H1024       H  0.38887923  0.06590818  0.60574339     0.17900
H1025       H  0.46058747  0.94771199  0.60108590     0.17900
F1026       F  0.42263892  0.93840959  0.53593307    -0.19900
C1027       C  0.41953113  0.95632519  0.83780025    -0.21300
C1028       C  0.44215619  0.98404595  0.84608100    -0.09300
C1029       C  0.44378101  0.00803947  0.89038339     0.29500
C1030       C  0.42317423  0.00422347  0.92573937    -0.21300
C1031       C  0.39986319  0.97774158  0.91719160    -0.09300
C1032       C  0.39833878  0.95364066  0.87252551     0.29500
F1033       F  0.37609044  0.92871193  0.86133633    -0.19900
H1034       H  0.41787920  0.93773461  0.80368597     0.17900
H1035       H  0.42588866  0.02180238  0.96017294     0.17900
F1036       F  0.46573995  0.03422665  0.90016418    -0.19900
C1037       C  0.58198660  0.01399774  0.92194734    -0.21300
C1038       C  0.60188129  0.98011852  0.91941715    -0.06900
C1039       C  0.59860173  0.94460529  0.88621675     0.29500
C1040       C  0.57654210  0.94495384  0.85326598    -0.21300
C1041       C  0.55786378  0.98099678  0.85305385    -0.09300
C1042       C  0.56020617  0.01464932  0.88907099     0.29500
F1043       F  0.54197203  0.04903525  0.89156727    -0.19900
H1044       H  0.58420462  0.04139461  0.94786857     0.17900
H1045       H  0.57496333  0.91842414  0.82616931     0.17900
F1046       F  0.61753021  0.91127590  0.88368479    -0.19900
C1047       C  0.57983585  0.98368174  0.56345063    -0.21300
C1048       C  0.60299637  0.01060325  0.57075419    -0.09300
C1049       C  0.60513617  0.03511061  0.61500069     0.29500
C1050       C  0.58441059  0.03280287  0.65060192    -0.21300
C1051       C  0.56167495  0.00508811  0.64344124    -0.09300
C1052       C  0.55957244  0.98047973  0.59952631     0.29500
F1053       F  0.53751411  0.95419707  0.59090883    -0.19900
H1054       H  0.57713394  0.96527418  0.52947319     0.17900
H1055       H  0.58650914  0.05166072  0.68447251     0.17900
F1056       F  0.62766308  0.05986660  0.62487796    -0.19900
loop_ 
_geom_bond_atom_site_label_1 
_geom_bond_atom_site_label_2 
_geom_bond_distance 
_geom_bond_site_symmetry_2 
_ccdc_geom_bond_type 
O1           Ni9   1.904       .  S
O1           C11   1.280   1_545  A
O2           Ni9   1.915       .  S
O2           C12   1.280   1_545  A
O3           Ni9   1.917       .  S
O3           C13   1.281   1_545  A
O4           Ni9   1.921       .  S
O4           C14   1.281   1_545  A
O5          Ni10   1.921       .  S
O5           C14   1.282       .  A
O6          Ni10   1.926       .  S
O6           C13   1.282       .  A
O7          Ni10   1.906       .  S
O7           C12   1.281       .  A
O8          Ni10   1.919       .  S
O8           C11   1.281       .  A
Ni9         Ni10   2.389   1_545  S
C11         C513   1.473       .  S
C12         C493   1.473   1_565  S
C13         C500   1.479       .  S
C14         C523   1.477   1_565  S
C15          C21   1.530       .  S
C15         C544   1.531   1_554  S
C15         C547   1.555   1_554  S
C15         C470   1.530       .  S
C16         C543   1.530       .  S
C16          H23   1.087       .  S
C16          C17   1.361   1_565  D
C17          C18   1.537       .  S
C17         C483   1.476       .  S
C18          C20   1.544   1_545  S
C18         C550   1.532   1_545  S
C18          H24   1.108       .  S
C19         C543   1.554       .  S
C19          H25   1.080       .  S
C19          C20   1.377       .  D
C20         C503   1.502       .  S
C21          H26   1.087       .  S
C21          C22   1.359       .  D
C22         C546   1.530   1_564  S
C22         C490   1.467   1_565  S
C27          C28   1.533       .  S
C27          C33   1.540       .  S
C27         C559   1.544       .  S
C27         C450   1.531       .  S
C28          H35   1.087       .  S
C28          C29   1.362   1_545  D
C29         C558   1.533       .  S
C29         C510   1.469       .  S
C30          C34   1.537   1_556  S
C30          C32   1.538   1_566  S
C30         C557   1.535       .  S
C30          H36   1.110   1_556  S
C31         C555   1.545   1_554  S
C31          H37   1.085       .  S
C31          C32   1.373       .  D
C32         C520   1.492       .  S
C33          H38   1.081       .  S
C33         C562   1.363   1_545  D
C34         C561   1.362   1_564  D
C34         C460   1.477       .  S
O39         Ni47   1.912       .  S
O39          C49   1.280       .  A
O40         Ni47   1.899       .  S
O40          C50   1.279       .  A
O41         Ni47   1.913       .  S
O41          C51   1.280       .  A
O42         Ni47   1.907       .  S
O42          C52   1.280       .  A
O43         Ni48   1.924       .  S
O43          C52   1.282       .  A
O44         Ni48   1.915       .  S
O44          C51   1.281       .  A
O45         Ni48   1.922       .  S
O45          C50   1.281       .  A
O46         Ni48   1.916       .  S
O46          C49   1.281       .  A
Ni47        Ni48   2.392       .  S
C49         C443   1.473       .  S
C50         C413   1.467       .  S
C51         C423   1.469       .  S
C52         C430   1.470       .  S
C53          C54   1.540       .  S
C53          C59   1.537       .  S
C53         C585   1.540       .  S
C53         C393   1.528       .  S
C54          H61   1.086       .  S
C54          C55   1.360       .  D
C55         C584   1.532       .  S
C55         C410   1.467       .  S
C56          C60   1.533   1_556  S
C56          C58   1.536   1_556  S
C56         C583   1.533       .  S
C56          H62   1.108   1_556  S
C57         C581   1.542   1_554  S
C57          H63   1.085       .  S
C57          C58   1.373       .  D
C58         C420   1.490       .  S
C59          H64   1.083       .  S
C59         C588   1.363       .  D
C60         C587   1.362   1_554  D
C60         C400   1.473       .  S
C65          C66   1.537       .  S
C65          C71   1.538       .  S
C65         C597   1.540       .  S
C65         C380   1.530       .  S
C66          H73   1.084       .  S
C66         C595   1.363       .  D
C67          C68   1.539       .  S
C67         C594   1.363       .  D
C67         C373   1.479   1_556  S
C68          C70   1.538   1_556  S
C68         C600   1.537       .  S
C68          H74   1.109   1_556  S
C69         C593   1.539   1_554  S
C69          H75   1.085       .  S
C69          C70   1.370       .  D
C70         C440   1.489       .  S
C71          H76   1.086       .  S
C71          C72   1.361       .  D
C72         C596   1.537       .  S
C72         C433   1.472       .  S
O77        Ni613   1.918   1_654  S
O77          C87   1.280       .  A
O78         Ni85   1.916       .  S
O78          C88   1.282       .  A
O79        Ni613   1.913   1_554  S
O79          C89   1.281       .  A
O80         Ni85   1.905   1_655  S
O80          C90   1.281       .  A
O81         Ni86   1.924   1_655  S
O81          C90   1.282       .  A
O82        Ni614   1.916       .  S
O82          C89   1.282       .  A
O83         Ni86   1.924       .  S
O83          C88   1.282       .  A
O84        Ni614   1.924   1_655  S
O84          C87   1.282       .  A
Ni85        O605   1.918   1_455  S
Ni85        O607   1.915       .  S
Ni85        Ni86   2.386       .  S
Ni86        O610   1.919       .  S
Ni86        O612   1.923   1_455  S
C87         C360   1.472       .  S
C88         C340   1.487       .  S
C89         C330   1.483       .  S
C90         C350   1.482       .  S
C91          C92   1.537       .  S
C91          C97   1.539       .  S
C91          C95   1.541       .  S
C91         C320   1.532       .  S
C92          H99   1.087       .  S
C92          C93   1.359       .  D
C93          C94   1.536       .  S
C93         C343   1.482       .  S
C94          C98   1.540       .  S
C94          C96   1.540       .  S
C94         H100   1.109       .  S
C95         H101   1.084       .  S
C95          C96   1.374       .  D
C96         C333   1.492       .  S
C97         H102   1.080       .  S
C97          C98   1.362       .  D
C98         C310   1.475       .  S
C103        C104   1.525       .  S
C103        C109   1.530       .  S
C103        C107   1.555       .  S
C103        C293   1.527       .  S
C104        H111   1.087       .  S
C104        C105   1.359       .  D
C105        C106   1.541       .  S
C105        C300   1.476       .  S
C106        C110   1.538       .  S
C106        C108   1.539       .  S
C106        H112   1.110       .  S
C107        H113   1.083       .  S
C107        C108   1.378       .  D
C108        C363   1.492       .  S
C109        H114   1.087       .  S
C109        C110   1.361       .  D
C110        C353   1.480       .  S
O115       Ni123   1.910   1_655  S
O115        C125   1.281   1_545  A
O116       Ni651   1.922   1_455  S
O116        C126   1.283   1_545  A
O117       Ni123   1.904       .  S
O117        C127   1.280   1_545  A
O118       Ni651   1.906       .  S
O118        C128   1.279   1_545  A
O119       Ni652   1.927       .  S
O119        C128   1.284       .  A
O120       Ni124   1.927   1_455  S
O120        C127   1.282       .  A
O121       Ni652   1.909   1_455  S
O121        C126   1.280       .  A
O122       Ni124   1.929       .  S
O122        C125   1.283       .  A
Ni123       O644   1.909       .  S
Ni123       O646   1.907   1_455  S
Ni123      Ni124   2.384   1_445  S
Ni124       O647   1.926       .  S
Ni124       O649   1.929   1_655  S
C125        C270   1.489       .  S
C126        C253   1.483       .  S
C127        C260   1.484       .  S
C128        C280   1.483       .  S
C129        C130   1.526   1_545  S
C129        C135   1.530       .  S
C129        C133   1.551       .  S
C129        C240   1.524       .  S
C130        H137   1.087       .  S
C130        C131   1.359       .  D
C131        C132   1.541       .  S
C131        C230   1.471       .  S
C132        C136   1.537       .  S
C132        C134   1.540   1_565  S
C132        H138   1.109       .  S
C133        H139   1.082       .  S
C133        C134   1.374       .  D
C134        C250   1.489   1_545  S
C135        H140   1.087       .  S
C135        C136   1.362   1_545  D
C136        C263   1.481       .  S
C141        C142   1.537       .  S
C141        C147   1.537       .  S
C141        C145   1.543       .  S
C141        C223   1.534       .  S
C142        H149   1.086       .  S
C142        C143   1.364       .  D
C143        C144   1.540   1_545  S
C143        C273   1.489   1_545  S
C144        C148   1.540       .  S
C144        C146   1.536   1_565  S
C144        H150   1.109       .  S
C145        H151   1.085       .  S
C145        C146   1.372       .  D
C146        C283   1.488       .  S
C147        H152   1.080       .  S
C147        C148   1.361   1_545  D
C148        C213   1.473       .  S
O153       Ni161   1.915       .  S
O153        C163   1.281       .  A
O154       Ni161   1.913       .  S
O154        C164   1.281       .  A
O155       Ni161   1.905       .  S
O155        C165   1.279       .  A
O156       Ni161   1.911       .  S
O156        C166   1.280       .  A
O157       Ni162   1.922       .  S
O157        C166   1.282       .  A
O158       Ni162   1.927       .  S
O158        C165   1.282       .  A
O159       Ni162   1.918       .  S
O159        C164   1.281       .  A
O160       Ni162   1.917       .  S
O160        C163   1.282       .  A
Ni161      Ni162   2.389       .  S
C163        C383   1.480       .  S
C164        C220   1.475       .  S
C165        C290   1.467       .  S
C166        C453   1.474       .  S
O167       Ni175   1.914       .  S
O167        C177   1.281       .  A
O168       Ni175   1.916       .  S
O168        C178   1.281       .  A
O169       Ni175   1.916       .  S
O169        C179   1.282       .  A
O170       Ni175   1.917       .  S
O170        C180   1.281       .  A
O171       Ni176   1.916       .  S
O171        C180   1.282       .  A
O172       Ni176   1.917       .  S
O172        C179   1.281       .  A
O173       Ni176   1.921       .  S
O173        C178   1.283       .  A
O174       Ni176   1.919       .  S
O174        C177   1.282       .  A
Ni175      Ni176   2.384       .  S
C177        C210   1.481       .  S
C178        C370   1.487       .  S
C179        C463   1.485       .  S
C180        C303   1.485       .  S
O181       Ni189   1.918       .  S
O181        C191   1.282       .  A
O182       Ni189   1.920       .  S
O182        C192   1.283       .  A
O183       Ni189   1.904       .  S
O183        C193   1.279       .  A
O184       Ni189   1.912       .  S
O184        C194   1.280       .  A
O185       Ni190   1.914       .  S
O185        C194   1.282       .  A
O186       Ni190   1.918       .  S
O186        C193   1.280       .  A
O187       Ni190   1.911       .  S
O187        C192   1.279       .  A
O188       Ni190   1.909       .  S
O188        C191   1.280       .  A
Ni189      Ni190   2.389       .  S
C191        C480   1.482       .  S
C192        C323   1.473       .  S
C193        C243   1.461       .  S
C194        C390   1.477       .  S
O195       Ni203   1.921       .  S
O195        C205   1.283       .  A
O196       Ni203   1.921       .  S
O196        C206   1.280       .  A
O197       Ni203   1.907       .  S
O197        C207   1.280       .  A
O198       Ni203   1.915       .  S
O198        C208   1.282       .  A
O199       Ni204   1.913       .  S
O199        C208   1.281       .  A
O200       Ni204   1.917       .  S
O200        C207   1.282       .  A
O201       Ni204   1.918       .  S
O201        C206   1.281       .  A
O202       Ni204   1.916       .  S
O202        C205   1.281       .  A
Ni203      Ni204   2.387       .  S
C205        C313   1.484       .  S
C206        C473   1.469       .  S
C207        C403   1.479       .  S
C208        C233   1.478       .  S
C209        C210   1.405       .  A
C209        C214   1.395       .  A
C209        H216   1.084       .  S
C210        C211   1.410       .  A
C211        C212   1.401       .  A
C211        F218   1.357       .  S
C212        C213   1.401       .  A
C212        H217   1.084       .  S
C213        C214   1.403       .  A
C214        F215   1.357       .  S
C219        C220   1.402       .  A
C219        C224   1.400       .  A
C219        H226   1.083       .  S
C220        C221   1.402       .  A
C221        C222   1.394       .  A
C221        F228   1.358       .  S
C222        C223   1.410       .  A
C222        H227   1.083       .  S
C223        C224   1.417       .  A
C224        F225   1.354       .  S
C229        C230   1.400       .  A
C229        C234   1.398       .  A
C229        H236   1.084       .  S
C230        C231   1.404       .  A
C231        C232   1.396       .  A
C231        F238   1.356       .  S
C232        C233   1.404       .  A
C232        H237   1.083       .  S
C233        C234   1.410       .  A
C234        F235   1.357       .  S
C239        C240   1.412       .  A
C239        C244   1.400       .  A
C239        H246   1.080       .  S
C240        C241   1.414       .  A
C241        C242   1.390       .  A
C241        F248   1.358       .  S
C242        C243   1.396       .  A
C242        H247   1.085       .  S
C243        C244   1.401       .  A
C244        F245   1.357       .  S
C249        C250   1.404       .  A
C249        C254   1.393       .  A
C249        H256   1.082       .  S
C250        C251   1.410   1_565  A
C251        C252   1.401       .  A
C251        F258   1.357       .  S
C252        C253   1.406   1_545  A
C252        H257   1.084       .  S
C253        C254   1.408       .  A
C254        F255   1.358       .  S
C259        C260   1.411       .  A
C259        C264   1.406       .  A
C259        H266   1.082       .  S
C260        C261   1.409   1_565  A
C261        C262   1.388       .  A
C261        F268   1.358       .  S
C262        C263   1.402   1_545  A
C262        H267   1.083       .  S
C263        C264   1.404       .  A
C264        F265   1.357       .  S
C269        C270   1.410       .  A
C269        C274   1.406       .  A
C269        H276   1.083       .  S
C270        C271   1.409   1_565  A
C271        C272   1.392       .  A
C271        F278   1.358       .  S
C272        C273   1.405   1_545  A
C272        H277   1.084       .  S
C273        C274   1.405       .  A
C274        F275   1.357       .  S
C279        C280   1.408   1_545  A
C279        C284   1.398       .  A
C279        H286   1.083       .  S
C280        C281   1.406       .  A
C281        C282   1.397       .  A
C281        F288   1.357       .  S
C282        C283   1.406   1_565  A
C282        H287   1.081       .  S
C283        C284   1.407       .  A
C284        F285   1.357       .  S
C289        C290   1.395       .  A
C289        C294   1.389       .  A
C289        H296   1.085       .  S
C290        C291   1.404       .  A
C291        C292   1.406       .  A
C291        F298   1.357       .  S
C292        C293   1.411       .  A
C292        H297   1.080       .  S
C293        C294   1.415       .  A
C294        F295   1.359       .  S
C299        C300   1.400       .  A
C299        C304   1.398       .  A
C299        H306   1.084       .  S
C300        C301   1.405       .  A
C301        C302   1.397       .  A
C301        F308   1.358       .  S
C302        C303   1.407       .  A
C302        H307   1.083       .  S
C303        C304   1.412       .  A
C304        F305   1.357       .  S
C309        C310   1.400       .  A
C309        C314   1.400       .  A
C309        H316   1.084       .  S
C310        C311   1.404       .  A
C311        C312   1.398       .  A
C311        F318   1.357       .  S
C312        C313   1.406       .  A
C312        H317   1.084       .  S
C313        C314   1.411       .  A
C314        F315   1.357       .  S
C319        C320   1.411       .  A
C319        C324   1.394       .  A
C319        H326   1.083       .  S
C320        C321   1.415       .  A
C321        C322   1.400       .  A
C321        F328   1.354       .  S
C322        C323   1.402       .  A
C322        H327   1.083       .  S
C323        C324   1.401       .  A
C324        F325   1.358       .  S
C329        C330   1.406       .  A
C329        C334   1.398       .  A
C329        H336   1.082       .  S
C330        C331   1.407       .  A
C331        C332   1.395       .  A
C331        F338   1.358       .  S
C332        C333   1.407       .  A
C332        H337   1.080       .  S
C333        C334   1.409       .  A
C334        F335   1.356       .  S
C339        C340   1.405       .  A
C339        C344   1.393       .  A
C339        H346   1.083       .  S
C340        C341   1.413       .  A
C341        C342   1.405       .  A
C341        F348   1.357       .  S
C342        C343   1.401       .  A
C342        H347   1.083       .  S
C343        C344   1.407       .  A
C344        F345   1.358       .  S
C349        C350   1.404       .  A
C349        C354   1.389       .  A
C349        H356   1.083       .  S
C350        C351   1.412       .  A
C351        C352   1.404       .  A
C351        F358   1.357       .  S
C352        C353   1.402       .  A
C352        H357   1.083       .  S
C353        C354   1.407       .  A
C354        F355   1.358       .  S
C359        C360   1.398       .  A
C359        C364   1.397       .  A
C359        H366   1.084       .  S
C360        C361   1.406       .  A
C361        C362   1.404       .  A
C361        F368   1.357       .  S
C362        C363   1.406       .  A
C362        H367   1.083       .  S
C363        C364   1.413       .  A
C364        F365   1.356       .  S
C369        C370   1.408       .  A
C369        C374   1.399       .  A
C369        H376   1.083       .  S
C370        C371   1.412       .  A
C371        C372   1.398   1_554  A
C371        F378   1.357   1_554  S
C372        C373   1.401   1_556  A
C372        H377   1.084       .  S
C373        C374   1.404       .  A
C374        F375   1.357       .  S
C379        C380   1.410       .  A
C379        C384   1.395       .  A
C379        H386   1.082       .  S
C380        C381   1.414       .  A
C381        C382   1.399       .  A
C381        F916   1.356       .  S
C382        C383   1.404       .  A
C382        H387   1.083       .  S
C383        C384   1.405       .  A
C384        F385   1.357       .  S
F388        C909   1.357   1_554  S
C389        C390   1.404       .  A
C389        C394   1.398       .  A
C389        H396   1.083       .  S
C390        C391   1.405       .  A
C391        C392   1.393       .  A
C391        F398   1.357       .  S
C392        C393   1.409       .  A
C392        H397   1.082       .  S
C393        C394   1.413       .  A
C394        F923   1.356       .  S
F395        C922   1.356   1_554  S
C399        C928   1.399       .  A
C399        C932   1.393       .  A
C399        H406   1.084       .  S
C400        C401   1.404       .  A
C400        C927   1.399   1_554  A
C401        C402   1.397       .  A
C401        F408   1.358       .  S
C402        C403   1.407       .  A
C402        H407   1.083       .  S
C403        C404   1.410       .  A
C404        C927   1.393   1_554  A
C404        F933   1.357   1_554  S
F405        C932   1.357       .  S
C409        C410   1.402       .  A
C409        C414   1.402       .  A
C409        H416   1.083       .  S
C410        C411   1.402       .  A
C411        C412   1.388       .  A
C411        F418   1.357       .  S
C412        C413   1.401       .  A
C412        H417   1.084       .  S
C413        C414   1.408       .  A
C414        F415   1.357       .  S
C419        C420   1.406       .  A
C419        C424   1.398       .  A
C419        H426   1.082       .  S
C420        C421   1.414       .  A
C421        C422   1.395       .  A
C421        F428   1.355       .  S
C422        C423   1.398       .  A
C422        H427   1.084       .  S
C423        C424   1.404       .  A
C424        F425   1.358       .  S
C429        C430   1.405       .  A
C429        C434   1.402       .  A
C429        H436   1.083       .  S
C430        C431   1.405       .  A
C431        C432   1.394       .  A
C431        F438   1.358       .  S
C432        C433   1.401       .  A
C432        H437   1.083       .  S
C433        C434   1.403       .  A
C434        F435   1.357       .  S
C439        C440   1.407       .  A
C439        C444   1.395       .  A
C439        H446   1.082       .  S
C440        C441   1.410       .  A
C441        C442   1.398       .  A
C441        F448   1.357       .  S
C442        C443   1.403       .  A
C442        H447   1.084       .  S
C443        C444   1.403       .  A
C444        F445   1.358       .  S
C449        C450   1.410       .  A
C449        C454   1.396       .  A
C449        H456   1.075       .  S
C450        C451   1.415       .  A
C451        C452   1.399       .  A
C451        F458   1.358       .  S
C452        C453   1.400       .  A
C452        H457   1.083       .  S
C453        C454   1.404       .  A
C454        F455   1.358       .  S
C459        C460   1.400       .  A
C459        C464   1.399       .  A
C459        H466   1.083       .  S
C460        C461   1.404   1_554  A
C461        C462   1.397   1_556  A
C461        F468   1.358       .  S
C462        C463   1.407       .  A
C462        H467   1.083   1_554  S
C463        C464   1.412       .  A
C464        F465   1.357       .  S
C469        C470   1.411       .  A
C469        C474   1.403       .  A
C469       H1004   1.080   1_554  S
C470        C471   1.416       .  A
C471        C472   1.394       .  A
C471        F478   1.358       .  S
C472        C473   1.396       .  A
C472        H477   1.085       .  S
C473        C474   1.404       .  A
C474        F475   1.357   1_554  S
H476        C997   1.080       .  S
C479        C480   1.407       .  A
C479        C484   1.398       .  A
C479        H486   1.083       .  S
C480        C481   1.411       .  A
C481        C482   1.395       .  A
C481        F488   1.357       .  S
C482        C483   1.399       .  A
C482        H487   1.084       .  S
C483        C484   1.405       .  A
C484       F1013   1.358       .  S
F485       C1012   1.358       .  S
C489        C490   1.399       .  A
C489        C494   1.401       .  A
C489        H496   1.083       .  S
C490        C491   1.402   1_545  A
C491        C492   1.389       .  A
C491        F498   1.358       .  S
C492        C493   1.403   1_565  A
C492        H497   1.083       .  S
C493        C494   1.410       .  A
C494        F495   1.357       .  S
C499        C500   1.403       .  A
C499        C504   1.404       .  A
C499        H506   1.083       .  S
C500        C501   1.403   1_565  A
C501        C502   1.397       .  A
C501        F508   1.358       .  S
C502        C503   1.410   1_545  A
C502        H507   1.080       .  S
C503        C504   1.414       .  A
C504        F505   1.356       .  S
C509        C510   1.400   1_545  A
C509        C514   1.389       .  A
C509        H516   1.084       .  S
C510        C511   1.401       .  A
C511        C512   1.402       .  A
C511        F518   1.357       .  S
C512        C513   1.408       .  A
C512        H517   1.084       .  S
C513        C514   1.406   1_565  A
C514        F515   1.358       .  S
C519        C520   1.408   1_565  A
C519        C524   1.398       .  A
C519        H526   1.082       .  S
C520        C521   1.410       .  A
C521        C522   1.402       .  A
C521        F528   1.357       .  S
C522        C523   1.403       .  A
C522        H527   1.083       .  S
C523        C524   1.404   1_545  A
C524        F525   1.358       .  S
O529       Ni537   1.909       .  S
O529        C539   1.281   1_545  A
O530       Ni537   1.920       .  S
O530        C540   1.281       .  A
O531       Ni537   1.920       .  S
O531        C541   1.282   1_545  A
O532       Ni537   1.925       .  S
O532        C542   1.282       .  A
O533       Ni538   1.917       .  S
O533        C542   1.281   1_565  A
O534       Ni538   1.922       .  S
O534        C541   1.281       .  A
O535       Ni538   1.906       .  S
O535        C540   1.281   1_565  A
O536       Ni538   1.919       .  S
O536        C539   1.281       .  A
Ni537      Ni538   2.389   1_545  S
C539       C1041   1.476       .  S
C540       C1021   1.474       .  S
C541       C1028   1.477       .  S
C542       C1051   1.477       .  S
C543        C549   1.532       .  S
C543        C998   1.529       .  S
C544        H551   1.087       .  S
C544        C545   1.361   1_565  D
C545        C546   1.536       .  S
C545       C1011   1.477       .  S
C546        C548   1.542   1_545  S
C546        H552   1.109       .  S
C547        H553   1.081       .  S
C547        C548   1.379       .  D
C548       C1031   1.500       .  S
C549        H554   1.087       .  S
C549        C550   1.360       .  D
C550       C1018   1.469   1_565  S
C555        C556   1.534       .  S
C555        C561   1.539       .  S
C555        C978   1.533       .  S
C556        H563   1.087       .  S
C556        C557   1.362   1_545  D
C557       C1038   1.472       .  S
C558        C562   1.536       .  S
C558        C560   1.539   1_565  S
C558        H564   1.110       .  S
C559        H565   1.085       .  S
C559        C560   1.372       .  D
C560       C1048   1.492       .  S
C561        H566   1.081   1_545  S
C562        C988   1.475       .  S
O567       Ni575   1.912       .  S
O567        C577   1.280       .  A
O568       Ni575   1.900       .  S
O568        C578   1.279       .  A
O569       Ni575   1.914       .  S
O569        C579   1.280       .  A
O570       Ni575   1.908       .  S
O570        C580   1.280       .  A
O571       Ni576   1.923       .  S
O571        C580   1.281       .  A
O572       Ni576   1.913       .  S
O572        C579   1.281       .  A
O573       Ni576   1.928       .  S
O573        C578   1.283       .  A
O574       Ni576   1.920       .  S
O574        C577   1.282       .  A
Ni575      Ni576   2.391       .  S
C577        C971   1.474       .  S
C578        C941   1.471       .  S
C579        C951   1.468       .  S
C580        C958   1.470       .  S
C581        C582   1.542       .  S
C581        C587   1.536       .  S
C581        C921   1.531       .  S
C582        H589   1.085       .  S
C582        C583   1.360       .  D
C583        C938   1.471       .  S
C584        C588   1.532       .  S
C584        C586   1.537       .  S
C584        H590   1.108       .  S
C585        H591   1.085       .  S
C585        C586   1.372       .  D
C586        C948   1.489       .  S
C587        H592   1.083       .  S
C588        C928   1.472       .  S
C593        C594   1.537       .  S
C593        C599   1.539       .  S
C593        C908   1.527       .  S
C594        H601   1.085       .  S
C595        C596   1.538       .  S
C595        C901   1.477       .  S
C596        C598   1.539       .  S
C596        H602   1.109       .  S
C597        H603   1.085       .  S
C597        C598   1.372       .  D
C598        C968   1.492       .  S
C599        H604   1.084       .  S
C599        C600   1.361       .  D
C600        C961   1.472       .  S
O605        C615   1.280       .  A
O606       Ni613   1.915       .  S
O606        C616   1.282       .  A
O607        C617   1.281       .  A
O608       Ni613   1.903   1_655  S
O608        C618   1.280       .  A
O609       Ni614   1.924   1_656  S
O609        C618   1.282       .  A
O610        C617   1.282       .  A
O611       Ni614   1.925   1_556  S
O611        C616   1.282       .  A
O612        C615   1.282       .  A
Ni613      Ni614   2.388   1_556  S
C615        C888   1.472       .  S
C616        C868   1.480       .  S
C617        C858   1.485       .  S
C618        C878   1.477       .  S
C619        C620   1.539       .  S
C619        C625   1.538       .  S
C619        C623   1.542       .  S
C619        C848   1.533       .  S
C620        H627   1.086       .  S
C620        C621   1.358       .  D
C621        C622   1.536       .  S
C621        C871   1.476       .  S
C622        C626   1.540       .  S
C622        C624   1.541       .  S
C622        H628   1.108       .  S
C623        H629   1.084       .  S
C623        C624   1.375       .  D
C624        C861   1.496       .  S
C625        H630   1.082       .  S
C625        C626   1.363       .  D
C626        C838   1.476       .  S
C631        C632   1.527       .  S
C631        C637   1.531       .  S
C631        C635   1.553       .  S
C631        C821   1.527       .  S
C632        H639   1.087       .  S
C632        C633   1.361       .  D
C633        C634   1.541       .  S
C633        C828   1.479       .  S
C634        C638   1.535       .  S
C634        C636   1.541       .  S
C634        H640   1.110       .  S
C635        H641   1.083       .  S
C635        C636   1.377       .  D
C636        C891   1.493       .  S
C637        H642   1.087       .  S
C637        C638   1.359       .  D
C638        C881   1.473       .  S
O643       Ni651   1.918   1_556  S
O643        C653   1.281   1_545  A
O644        C654   1.280   1_545  A
O645       Ni651   1.903   1_456  S
O645        C655   1.279   1_545  A
O646        C656   1.279   1_545  A
O647        C656   1.284       .  A
O648       Ni652   1.929   1_456  S
O648        C655   1.284       .  A
O649        C654   1.284       .  A
O650       Ni652   1.910   1_556  S
O650        C653   1.277       .  A
Ni651      Ni652   2.388   1_545  S
C653        C798   1.461       .  S
C654        C781   1.486       .  S
C655        C788   1.482       .  S
C656        C808   1.482       .  S
C657        C658   1.529   1_545  S
C657        C663   1.533       .  S
C657        C661   1.552       .  S
C657        C768   1.529       .  S
C658        H665   1.087       .  S
C658        C659   1.361       .  D
C659        C660   1.539       .  S
C659        C758   1.469       .  S
C660        C664   1.534       .  S
C660        C662   1.538       .  S
C660        H666   1.110       .  S
C661        H667   1.079       .  S
C661        C662   1.375   1_545  D
C662        C778   1.492       .  S
C663        H668   1.087       .  S
C663        C664   1.362   1_545  D
C664        C791   1.474       .  S
C669        C670   1.540       .  S
C669        C675   1.537       .  S
C669        C673   1.540       .  S
C669        C751   1.529       .  S
C670        H677   1.084       .  S
C670        C671   1.361   1_545  D
C671        C672   1.534       .  S
C671        C801   1.476       .  S
C672        C676   1.537       .  S
C672        C674   1.536   1_565  S
C672        H678   1.110       .  S
C673        H679   1.085       .  S
C673        C674   1.372       .  D
C674        C811   1.489       .  S
C675        H680   1.085       .  S
C675        C676   1.361   1_545  D
C676        C741   1.468       .  S
O681       Ni689   1.909       .  S
O681        C691   1.280       .  A
O682       Ni689   1.908       .  S
O682        C692   1.280       .  A
O683       Ni689   1.909       .  S
O683        C693   1.280       .  A
O684       Ni689   1.911       .  S
O684        C694   1.280       .  A
O685       Ni690   1.923       .  S
O685        C694   1.282       .  A
O686       Ni690   1.924       .  S
O686        C693   1.281       .  A
O687       Ni690   1.918       .  S
O687        C692   1.282       .  A
O688       Ni690   1.916       .  S
O688        C691   1.282       .  A
Ni689      Ni690   2.388       .  S
C691        C911   1.478       .  S
C692        C748   1.479       .  S
C693        C818   1.470       .  S
C694        C981   1.474       .  S
O695       Ni703   1.912       .  S
O695        C705   1.281       .  A
O696       Ni703   1.914       .  S
O696        C706   1.281       .  A
O697       Ni703   1.911       .  S
O697        C707   1.281       .  A
O698       Ni703   1.915       .  S
O698        C708   1.281       .  A
O699       Ni704   1.921       .  S
O699        C708   1.283       .  A
O700       Ni704   1.918       .  S
O700        C707   1.282       .  A
O701       Ni704   1.918       .  S
O701        C706   1.282       .  A
O702       Ni704   1.915       .  S
O702        C705   1.281       .  A
Ni703      Ni704   2.385       .  S
C705        C738   1.478       .  S
C706        C898   1.485       .  S
C707        C991   1.483       .  S
C708        C831   1.486       .  S
O709       Ni717   1.918       .  S
O709        C719   1.282       .  A
O710       Ni717   1.922       .  S
O710        C720   1.283       .  A
O711       Ni717   1.911       .  S
O711        C721   1.280       .  A
O712       Ni717   1.916       .  S
O712        C722   1.281       .  A
O713       Ni718   1.914       .  S
O713        C722   1.282       .  A
O714       Ni718   1.920       .  S
O714        C721   1.280       .  A
O715       Ni718   1.913       .  S
O715        C720   1.280       .  A
O716       Ni718   1.910       .  S
O716        C719   1.280       .  A
Ni717      Ni718   2.387       .  S
C719       C1008   1.482       .  S
C720        C851   1.479       .  S
C721        C771   1.466       .  S
C722        C918   1.480       .  S
O723       Ni731   1.920       .  S
O723        C733   1.282       .  A
O724       Ni731   1.919       .  S
O724        C734   1.280       .  A
O725       Ni731   1.908       .  S
O725        C735   1.280       .  A
O726       Ni731   1.914       .  S
O726        C736   1.282       .  A
O727       Ni732   1.911       .  S
O727        C736   1.280       .  A
O728       Ni732   1.916       .  S
O728        C735   1.282       .  A
O729       Ni732   1.918       .  S
O729        C734   1.281       .  A
O730       Ni732   1.917       .  S
O730        C733   1.282       .  A
Ni731      Ni732   2.387       .  S
C733        C841   1.485       .  S
C734       C1001   1.469       .  S
C735        C931   1.479       .  S
C736        C761   1.476       .  S
C737        C738   1.406       .  A
C737        C742   1.395       .  A
C737        H744   1.084       .  S
C738        C739   1.410       .  A
C739        C740   1.398       .  A
C739        F746   1.357       .  S
C740        C741   1.400       .  A
C740        H745   1.084       .  S
C741        C742   1.401       .  A
C742        F743   1.357       .  S
C747        C748   1.405       .  A
C747        C752   1.400       .  A
C747        H754   1.083       .  S
C748        C749   1.406       .  A
C749        C750   1.392       .  A
C749        F756   1.358       .  S
C750        C751   1.409       .  A
C750        H755   1.081       .  S
C751        C752   1.413       .  A
C752        F753   1.357       .  S
C757        C758   1.400       .  A
C757        C762   1.398       .  A
C757        H764   1.084       .  S
C758        C759   1.403       .  A
C759        C760   1.394       .  A
C759        F766   1.356       .  S
C760        C761   1.404       .  A
C760        H765   1.083       .  S
C761        C762   1.410       .  A
C762        F763   1.357       .  S
C767        C768   1.413       .  A
C767        C772   1.402       .  A
C767        H774   1.073       .  S
C768        C769   1.414       .  A
C769        C770   1.394       .  A
C769        F776   1.358       .  S
C770        C771   1.397       .  A
C770        H775   1.082       .  S
C771        C772   1.401       .  A
C772        F773   1.357       .  S
C777        C778   1.408       .  A
C777        C782   1.401       .  A
C777        H784   1.082       .  S
C778        C779   1.408   1_565  A
C779        C780   1.396       .  A
C779        F786   1.357       .  S
C780        C781   1.406   1_545  A
C780        H785   1.084       .  S
C781        C782   1.408       .  A
C782        F783   1.357       .  S
C787        C788   1.409       .  A
C787        C792   1.404       .  A
C787        H794   1.082       .  S
C788        C789   1.410   1_565  A
C789        C790   1.390       .  A
C789        F796   1.358       .  S
C790        C791   1.399   1_545  A
C790        H795   1.084       .  S
C791        C792   1.403       .  A
C792        F793   1.357       .  S
C797        C798   1.400       .  A
C797        C802   1.396       .  A
C797        H804   1.084       .  S
C798        C799   1.402       .  A
C799        C800   1.397       .  A
C799        F806   1.357       .  S
C800        C801   1.404       .  A
C800        H805   1.084       .  S
C801        C802   1.407       .  A
C802        F803   1.358       .  S
C807        C808   1.407   1_545  A
C807        C812   1.398       .  A
C807        H814   1.083       .  S
C808        C809   1.406       .  A
C809        C810   1.397       .  A
C809        F816   1.357       .  S
C810        C811   1.407   1_565  A
C810        H815   1.081       .  S
C811        C812   1.408       .  A
C812        F813   1.357       .  S
C817        C818   1.396       .  A
C817        C822   1.391       .  A
C817        H824   1.085       .  S
C818        C819   1.404       .  A
C819        C820   1.405       .  A
C819        F826   1.357       .  S
C820        C821   1.411       .  A
C820        H825   1.080       .  S
C821        C822   1.414       .  A
C822        F823   1.359       .  S
C827        C828   1.400       .  A
C827        C832   1.398       .  A
C827        H834   1.083       .  S
C828        C829   1.406       .  A
C829        C830   1.398       .  A
C829        F836   1.358       .  S
C830        C831   1.407       .  A
C830        H835   1.083       .  S
C831        C832   1.412       .  A
C832        F833   1.357       .  S
C837        C838   1.400       .  A
C837        C842   1.399       .  A
C837        H844   1.084       .  S
C838        C839   1.403       .  A
C839        C840   1.399       .  A
C839        F846   1.357       .  S
C840        C841   1.407       .  A
C840        H845   1.084       .  S
C841        C842   1.411       .  A
C842        F843   1.357       .  S
C847        C848   1.411       .  A
C847        C852   1.395       .  A
C847        H854   1.083       .  S
C848        C849   1.414       .  A
C849        C850   1.400       .  A
C849        F856   1.355       .  S
C850        C851   1.405       .  A
C850        H855   1.083       .  S
C851        C852   1.403       .  A
C852        F853   1.357       .  S
C857        C858   1.406       .  A
C857        C862   1.400       .  A
C857        H864   1.082       .  S
C858        C859   1.407       .  A
C859        C860   1.396       .  A
C859        F866   1.358       .  S
C860        C861   1.408       .  A
C860        H865   1.079       .  S
C861        C862   1.411       .  A
C862        F863   1.356       .  S
C867        C868   1.403       .  A
C867        C872   1.394       .  A
C867        H874   1.083       .  S
C868        C869   1.410       .  A
C869        C870   1.405       .  A
C869        F876   1.357       .  S
C870        C871   1.401       .  A
C870        H875   1.083       .  S
C871        C872   1.404       .  A
C872        F873   1.358       .  S
C877        C878   1.404       .  A
C877        C882   1.390       .  A
C877        H884   1.083       .  S
C878        C879   1.410       .  A
C879        C880   1.403       .  A
C879        F886   1.357       .  S
C880        C881   1.401       .  A
C880        H885   1.083       .  S
C881        C882   1.404       .  A
C882        F883   1.358       .  S
C887        C888   1.398       .  A
C887        C892   1.397       .  A
C887        H894   1.084       .  S
C888        C889   1.405       .  A
C889        C890   1.403       .  A
C889        F896   1.357       .  S
C890        C891   1.407       .  A
C890        H895   1.083       .  S
C891        C892   1.413       .  A
C892        F893   1.355       .  S
C897        C898   1.408       .  A
C897        C902   1.399       .  A
C897        H904   1.083       .  S
C898        C899   1.411       .  A
C899        C900   1.396       .  A
C899        F906   1.357       .  S
C900        C901   1.401       .  A
C900        H905   1.084       .  S
C901        C902   1.403       .  A
C902        F903   1.358       .  S
C907        C908   1.411       .  A
C907        C912   1.394       .  A
C907        H914   1.080       .  S
C908        C909   1.411       .  A
C909        C910   1.397       .  A
C910        C911   1.405       .  A
C910        H915   1.083       .  S
C911        C912   1.404       .  A
C912        F913   1.358       .  S
C917        C918   1.405       .  A
C917        C922   1.400       .  A
C917        H924   1.083       .  S
C918        C919   1.405       .  A
C919        C920   1.394       .  A
C919        F926   1.357       .  S
C920        C921   1.408       .  A
C920        H925   1.082       .  S
C921        C922   1.414       .  A
C927        H934   1.084       .  S
C928        C929   1.404       .  A
C929        C930   1.397       .  A
C929        F936   1.358       .  S
C930        C931   1.407       .  A
C930        H935   1.083       .  S
C931        C932   1.410       .  A
C937        C938   1.403       .  A
C937        C942   1.404       .  A
C937        H944   1.083       .  S
C938        C939   1.403       .  A
C939        C940   1.389       .  A
C939        F946   1.357       .  S
C940        C941   1.401       .  A
C940        H945   1.084       .  S
C941        C942   1.408       .  A
C942        F943   1.357       .  S
C947        C948   1.407       .  A
C947        C952   1.398       .  A
C947        H954   1.082       .  S
C948        C949   1.412       .  A
C949        C950   1.394       .  A
C949        F956   1.356       .  S
C950        C951   1.399       .  A
C950        H955   1.084       .  S
C951        C952   1.403       .  A
C952        F953   1.357       .  S
C957        C958   1.405       .  A
C957        C962   1.402       .  A
C957        H964   1.083       .  S
C958        C959   1.404       .  A
C959        C960   1.394       .  A
C959        F966   1.358       .  S
C960        C961   1.402       .  A
C960        H965   1.083       .  S
C961        C962   1.403       .  A
C962        F963   1.357       .  S
C967        C968   1.408       .  A
C967        C972   1.397       .  A
C967        H974   1.082       .  S
C968        C969   1.410       .  A
C969        C970   1.398       .  A
C969        F976   1.356       .  S
C970        C971   1.403       .  A
C970        H975   1.084       .  S
C971        C972   1.403       .  A
C972        F973   1.358       .  S
C977        C978   1.410       .  A
C977        C982   1.395       .  A
C977        H984   1.076       .  S
C978        C979   1.416       .  A
C979        C980   1.400       .  A
C979        F986   1.358       .  S
C980        C981   1.401       .  A
C980        H985   1.083       .  S
C981        C982   1.403       .  A
C982        F983   1.358       .  S
C987        C988   1.400       .  A
C987        C992   1.398       .  A
C987        H994   1.083       .  S
C988        C989   1.403       .  A
C989        C990   1.396       .  A
C989        F996   1.358       .  S
C990        C991   1.408       .  A
C990        H995   1.083       .  S
C991        C992   1.411       .  A
C992        F993   1.357       .  S
C997        C998   1.411       .  A
C997       C1002   1.401       .  A
C998        C999   1.415       .  A
C999       C1000   1.395       .  A
C999       F1006   1.358       .  S
C1000      C1001   1.397       .  A
C1000      H1005   1.085       .  S
C1001      C1002   1.402       .  A
C1002      F1003   1.357       .  S
C1007      C1008   1.406       .  A
C1007      C1012   1.397   1_556  A
C1007      H1014   1.083   1_556  S
C1008      C1009   1.411       .  A
C1009      C1010   1.396       .  A
C1009      F1016   1.357       .  S
C1010      C1011   1.400       .  A
C1010      H1015   1.084       .  S
C1011      C1012   1.405   1_556  A
C1017      C1018   1.401       .  A
C1017      C1022   1.402       .  A
C1017      H1024   1.083       .  S
C1018      C1019   1.402   1_545  A
C1019      C1020   1.390       .  A
C1019      F1026   1.358       .  S
C1020      C1021   1.403   1_565  A
C1020      H1025   1.083       .  S
C1021      C1022   1.410       .  A
C1022      F1023   1.357       .  S
C1027      C1028   1.404       .  A
C1027      C1032   1.404       .  A
C1027      H1034   1.083       .  S
C1028      C1029   1.402   1_565  A
C1029      C1030   1.397       .  A
C1029      F1036   1.358       .  S
C1030      C1031   1.410   1_545  A
C1030      H1035   1.081       .  S
C1031      C1032   1.412       .  A
C1032      F1033   1.356       .  S
C1037      C1038   1.401   1_545  A
C1037      C1042   1.391       .  A
C1037      H1044   1.085       .  S
C1038      C1039   1.401       .  A
C1039      C1040   1.402       .  A
C1039      F1046   1.357       .  S
C1040      C1041   1.408       .  A
C1040      H1045   1.084       .  S
C1041      C1042   1.407   1_565  A
C1042      F1043   1.358       .  S
C1047      C1048   1.407   1_565  A
C1047      C1052   1.397       .  A
C1047      H1054   1.082       .  S
C1048      C1049   1.410       .  A
C1049      C1050   1.402       .  A
C1049      F1056   1.357       .  S
C1050      C1051   1.403       .  A
C1050      H1055   1.083       .  S
C1051      C1052   1.404   1_545  A
C1052      F1053   1.358       .  S
