geometry optimzed in LAMMPS
_audit_creation_date              2020-12-01 
_audit_creation_method            'lammps2cif' 
_symmetry_space_group_name_H-M    'P1' 
_symmetry_Int_Tables_number       1 
_symmetry_cell_setting            triclinic 
loop_ 
_symmetry_equiv_pos_as_xyz 
  x,y,z 
_cell_length_a                    44.87800455 
_cell_length_b                    44.875230356933564 
_cell_length_c                    44.87854148133522 
_cell_angle_alpha                 89.99261856235155 
_cell_angle_beta                  89.99198569662717 
_cell_angle_gamma                 89.99105456275875 
loop_ 
_atom_site_label 
_atom_site_type_symbol 
_atom_site_fract_x 
_atom_site_fract_y 
_atom_site_fract_z 
_atom_site_charge 
C1          C  0.20065977  0.15843135  0.18561069     0.82300
N2          N  0.20460762  0.17747444  0.16243504    -0.76000
C3          C  0.18557580  0.20065716  0.15844523     0.84700
N4          N  0.16240343  0.20460947  0.17749084    -0.76000
C5          C  0.15842241  0.18558564  0.20068040     0.84800
N6          N  0.17747356  0.16241681  0.20463708    -0.77700
C7          C  0.20070435  0.82201041  0.18559335     0.82300
N8          N  0.17752082  0.81802413  0.20462228    -0.76000
C9          C  0.15847320  0.79485895  0.20066851     0.84700
N10         N  0.16245516  0.77583946  0.17747945    -0.76000
C11         C  0.18562487  0.77979269  0.15843126     0.84800
N12         N  0.20465320  0.80297177  0.16241816    -0.77700
C13         C  0.82201690  0.18557699  0.20071544     0.82300
N14         N  0.81803507  0.20460287  0.17752784    -0.76000
C15         C  0.79486791  0.20065255  0.15848349     0.84700
N16         N  0.77584206  0.17746985  0.16247273    -0.76000
C17         C  0.77979087  0.15842469  0.18564644     0.84800
N18         N  0.80297182  0.16240820  0.20467158    -0.77700
C19         C  0.20064656  0.15846661  0.79486160     0.82300
N20         N  0.20459302  0.17750650  0.81803406    -0.76000
C21         C  0.18555963  0.20068731  0.82202658     0.84700
N22         N  0.16238731  0.20464118  0.80298670    -0.76000
C23         C  0.15840772  0.18562053  0.77980033     0.84800
N24         N  0.17746040  0.16245354  0.77584092    -0.77700
N25         N  0.28900056  0.92904661  0.19477797    -0.25200
N26         N  0.26375775  0.94413258  0.19680378    -0.33100
C27         C  0.24077953  0.92491035  0.19628624     0.03100
C28         C  0.25216055  0.89646859  0.19384791     0.09100
C29         C  0.28274277  0.89975280  0.19288556    -0.04000
H30         H  0.21753260  0.93124468  0.19724690     0.09800
H31         H  0.29920436  0.88225991  0.19074683     0.11000
Cu32       Cu  0.26151106  0.99021473  0.19903059     0.44200
Cu33       Cu  0.33053056  0.94941449  0.19424206     0.42000
Cu34       Cu  0.33051393  0.03101352  0.19424079     0.43900
N35         N  0.26374079  0.03629788  0.19680946    -0.32600
N36         N  0.28897907  0.05138378  0.19478280    -0.26900
C37         C  0.28271308  0.08067856  0.19289485    -0.03000
C38         C  0.25213002  0.08396362  0.19386111     0.09300
C39         C  0.24075706  0.05552116  0.19629695     0.03100
H40         H  0.29916957  0.09817153  0.19075667     0.10700
H41         H  0.21751200  0.04918733  0.19725924     0.09800
N42         N  0.36875875  0.00497008  0.19437256    -0.34100
N43         N  0.36876514  0.97546131  0.19437332    -0.26200
C44         C  0.39711595  0.96570191  0.19456052    -0.01500
C45         C  0.41563678  0.99021873  0.19468103     0.07100
C46         C  0.39710518  0.01473307  0.19455924     0.05200
H47         H  0.40368642  0.94250083  0.19462615     0.10300
H48         H  0.40366535  0.03793498  0.19462376     0.09200
N49         N  0.69149289  0.05138700  0.19483750    -0.25200
N50         N  0.71673390  0.03629871  0.19686473    -0.33100
C51         C  0.73971373  0.05551941  0.19634719     0.03100
C52         C  0.72833546  0.08396258  0.19390747     0.09100
C53         C  0.69775335  0.08068072  0.19294417    -0.04000
H54         H  0.76295995  0.04918315  0.19730831     0.09800
H55         H  0.68129371  0.09817523  0.19080363     0.11000
Cu56       Cu  0.71897540  0.99021573  0.19909186     0.44200
Cu57       Cu  0.64996179  0.03102227  0.19429881     0.42000
Cu58       Cu  0.64997101  0.94942348  0.19428274     0.43900
N59         N  0.71674261  0.94413357  0.19686629    -0.32600
N60         N  0.69150433  0.92905011  0.19483207    -0.26900
C61         C  0.69776942  0.89975559  0.19294214    -0.03000
C62         C  0.72835180  0.89646820  0.19391517     0.09300
C63         C  0.73972529  0.92490900  0.19635690     0.03100
H64         H  0.68131293  0.88226448  0.19079776     0.10700
H65         H  0.76297026  0.93124101  0.19732476     0.09800
N66         N  0.61172830  0.97547039  0.19441132    -0.34100
N67         N  0.61172476  0.00497916  0.19441812    -0.26200
C68         C  0.58337484  0.01474133  0.19460007    -0.01500
C69         C  0.56485152  0.99022633  0.19471087     0.07100
C70         C  0.58338078  0.96571018  0.19458867     0.05200
H71         H  0.57680665  0.03794308  0.19466774     0.10300
H72         H  0.57681822  0.94250888  0.19464593     0.09200
C73         C  0.77982718  0.82200539  0.18565957     0.82300
N74         N  0.77588340  0.80296625  0.16248603    -0.76000
C75         C  0.79491866  0.77978695  0.15849351     0.84700
N76         N  0.81809052  0.77583421  0.17753424    -0.76000
C77         C  0.82206752  0.79485416  0.20072166     0.84800
N78         N  0.80301287  0.81801954  0.20468106    -0.77700
N79         N  0.19472760  0.28897774  0.92906645    -0.25200
N80         N  0.19676222  0.26373387  0.94415059    -0.33100
C81         C  0.19624950  0.24075363  0.92492926     0.03100
C82         C  0.19380504  0.25213521  0.89649000     0.09100
C83         C  0.19283417  0.28271896  0.89977494    -0.04000
H84         H  0.19721686  0.21750675  0.93126194     0.09800
H85         H  0.19068857  0.29918078  0.88228413     0.11000
Cu86       Cu  0.19899196  0.26148791  0.99022915     0.44200
Cu87       Cu  0.19418006  0.33051085  0.94943215     0.42000
Cu88       Cu  0.19417578  0.33049797  0.03102145     0.43900
N89         N  0.19676509  0.26372140  0.03630846    -0.32600
N90         N  0.19472858  0.28896219  0.05139135    -0.26900
C91         C  0.19283863  0.28269815  0.08068405    -0.03000
C92         C  0.19381377  0.25211396  0.08397125     0.09300
C93         C  0.19625706  0.24073760  0.05553187     0.03100
H94         H  0.19069294  0.29915664  0.09817417     0.10700
H95         H  0.19722708  0.21749198  0.04920075     0.09800
N96         N  0.19429778  0.36874500  0.00498086    -0.34100
N97         N  0.19429967  0.36875011  0.97547493    -0.26200
C98         C  0.19448062  0.39710187  0.96571655    -0.01500
C99         C  0.19459584  0.41562500  0.99023025     0.07100
C100        C  0.19447748  0.39709318  0.01474201     0.05200
H101        H  0.19454646  0.40367252  0.94251337     0.10300
H102        H  0.19454051  0.40365547  0.03794582     0.09200
N103        N  0.19479379  0.69150004  0.05138931    -0.25200
N104        N  0.19683390  0.71674215  0.03630355    -0.33100
C105        C  0.19632306  0.73972356  0.05552394     0.03100
C106        C  0.19387414  0.72834437  0.08396425     0.09100
C107        C  0.19289861  0.69776101  0.08068082    -0.04000
H108        H  0.19729445  0.76296969  0.04919000     0.09800
H109        H  0.19074838  0.68130097  0.09817273     0.11000
Cu110      Cu  0.19906715  0.71898355  0.99022429     0.44200
Cu111      Cu  0.19424010  0.64996655  0.03102573     0.42000
Cu112      Cu  0.19422792  0.64997317  0.94943651     0.43900
N113        N  0.19683684  0.71674824  0.94414585    -0.32600
N114        N  0.19479133  0.69150807  0.92906471    -0.26900
C115        C  0.19289948  0.69777227  0.89977251    -0.03000
C116        C  0.19388301  0.72835582  0.89648381     0.09300
C117        C  0.19633301  0.73973162  0.92492182     0.03100
H118        H  0.19074614  0.68131448  0.88228387     0.10700
H119        H  0.19730949  0.76297686  0.93125183     0.09800
N120        N  0.19434242  0.61172784  0.97548019    -0.34100
N121        N  0.19434759  0.61172535  0.00498612    -0.26200
C122        C  0.19452098  0.58337444  0.01474713    -0.01500
C123        C  0.19462784  0.56484896  0.99023519     0.07100
C124        C  0.19451234  0.58337858  0.96572168     0.05200
H125        H  0.19458657  0.57680598  0.03795093     0.10300
H126        H  0.19457010  0.57681401  0.94251849     0.09200
C127        C  0.20070816  0.82204666  0.79485056     0.82300
N128        N  0.17752447  0.81806307  0.77582870    -0.76000
C129        C  0.15848026  0.79489388  0.77978718     0.84700
N130        N  0.16246566  0.77586778  0.80297404    -0.76000
C131        C  0.18563552  0.77981819  0.82201514     0.84800
N132        N  0.20466041  0.80300127  0.81802351    -0.77700
N133        N  0.92904742  0.19473786  0.28901260    -0.25200
N134        N  0.94413301  0.19677370  0.26377173    -0.33100
C135        C  0.92491283  0.19626419  0.24079260     0.03100
C136        C  0.89647264  0.19382064  0.25217124     0.09100
C137        C  0.89975612  0.19284686  0.28275246    -0.04000
H138        H  0.93124761  0.19723337  0.21754640     0.09800
H139        H  0.88226275  0.19070087  0.29921337     0.11000
Cu140      Cu  0.99021219  0.19900158  0.26152821     0.44200
Cu141      Cu  0.94941364  0.19418620  0.33054240     0.42000
Cu142      Cu  0.03100890  0.19418532  0.33052730     0.43900
N143        N  0.03629235  0.19677646  0.26375644    -0.32600
N144        N  0.05137767  0.19474006  0.28899347    -0.26900
C145        C  0.08066995  0.19285139  0.28272643    -0.03000
C146        C  0.08395456  0.19382735  0.25214452     0.09300
C147        C  0.05551378  0.19626968  0.24077261     0.03100
H148        H  0.09816326  0.19070561  0.29918308     0.10700
H149        H  0.04917968  0.19723994  0.21752799     0.09800
N150        N  0.00496623  0.19430246  0.36877082    -0.34100
N151        N  0.97545972  0.19430301  0.36877663    -0.26200
C152        C  0.96570151  0.19447940  0.39712663    -0.01500
C153        C  0.99021584  0.19459285  0.41564779     0.07100
C154        C  0.01472786  0.19447847  0.39711683     0.05200
H155        H  0.94249879  0.19454274  0.40369722     0.10300
H156        H  0.03793132  0.19454107  0.40367806     0.09200
N157        N  0.05137546  0.19479342  0.69150204    -0.25200
N158        N  0.03628703  0.19683306  0.71674071    -0.33100
C159        C  0.05550520  0.19632316  0.73972188     0.03100
C160        C  0.08394703  0.19387544  0.72834667     0.09100
C161        C  0.08066649  0.19289950  0.69776552    -0.04000
H162        H  0.04916803  0.19729434  0.76296720     0.09800
H163        H  0.09816173  0.19074945  0.68130695     0.11000
Cu164      Cu  0.99020692  0.19906450  0.71897765     0.44200
Cu165      Cu  0.03101327  0.19423857  0.64997068     0.42000
Cu166      Cu  0.94941802  0.19422115  0.64997657     0.43900
N167        N  0.94412778  0.19683509  0.71674560    -0.32600
N168        N  0.92904545  0.19478788  0.69150853    -0.26900
C169        C  0.89975342  0.19289802  0.69777437    -0.03000
C170        C  0.89646588  0.19388474  0.72835547     0.09300
C171        C  0.92490467  0.19633439  0.73972810     0.03100
H172        H  0.88226241  0.19074396  0.68131764     0.10700
H173        H  0.93123647  0.19731310  0.76297266     0.09800
N174        N  0.97546510  0.19433581  0.61173585    -0.34100
N175        N  0.00497160  0.19434323  0.61173348    -0.26200
C176        C  0.01473311  0.19451549  0.58338456    -0.01500
C177        C  0.99022092  0.19461902  0.56486048     0.07100
C178        C  0.96570676  0.19450306  0.58338859     0.05200
H179        H  0.03793656  0.19458190  0.57681666     0.10300
H180        H  0.94250404  0.19455823  0.57682457     0.09200
C181        C  0.82200348  0.18563958  0.77982494     0.82300
N182        N  0.80295718  0.16247336  0.77587083    -0.76000
C183        C  0.77977499  0.15848429  0.79490084     0.84700
N184        N  0.77582637  0.17752109  0.81807766    -0.76000
C185        C  0.79485339  0.20070123  0.82206494     0.84800
N186        N  0.81802174  0.20465715  0.80301562    -0.77700
N187        N  0.78572470  0.28897050  0.05143972    -0.25200
N188        N  0.78366619  0.26373213  0.03635722    -0.33100
C189        C  0.78416539  0.24074720  0.05557952     0.03100
C190        C  0.78662597  0.25212001  0.08401775     0.09100
C191        C  0.78762055  0.28270340  0.08073105    -0.04000
H192        H  0.78317888  0.21750275  0.04924808     0.09800
H193        H  0.78978411  0.29915905  0.09822042     0.11000
Cu194      Cu  0.78142634  0.26149972  0.99027898     0.44200
Cu195      Cu  0.78630001  0.33050735  0.03107175     0.42000
Cu196      Cu  0.78628861  0.33051670  0.94948374     0.43900
N197        N  0.78366037  0.26374295  0.94419967    -0.32600
N198        N  0.78571428  0.28898531  0.92911623    -0.26900
C199        C  0.78760706  0.28272599  0.89982420    -0.03000
C200        C  0.78661527  0.25214342  0.89653786     0.09300
C201        C  0.78415960  0.24076298  0.92497716     0.03100
H202        H  0.78976681  0.29918646  0.88233393     0.10700
H203        H  0.78317632  0.21751674  0.93130901     0.09800
N204        N  0.78619166  0.36875744  0.97552409    -0.34100
N205        N  0.78619615  0.36875426  0.00503000    -0.26200
C206        C  0.78603205  0.39710343  0.01478911    -0.01500
C207        C  0.78592126  0.41563368  0.99027593     0.07100
C208        C  0.78602457  0.39710859  0.96576365     0.05200
H209        H  0.78597427  0.40366754  0.03799246     0.10300
H210        H  0.78595984  0.40367749  0.94256002     0.09200
N211        N  0.78579088  0.69152424  0.92912153    -0.25200
N212        N  0.78374613  0.71676402  0.94420509    -0.33100
C213        C  0.78425142  0.73974864  0.92498265     0.03100
C214        C  0.78670159  0.72837392  0.89654326     0.09100
C215        C  0.78768359  0.69778987  0.89982936    -0.04000
H216        H  0.78327460  0.76299374  0.93131449     0.09800
H217        H  0.78983548  0.68133256  0.88233889     0.11000
Cu218      Cu  0.78151195  0.71899659  0.99028400     0.44200
Cu219      Cu  0.78635062  0.64998718  0.94948886     0.42000
Cu220      Cu  0.78634271  0.64997272  0.03107635     0.43900
N221        N  0.78373844  0.71674869  0.03636255    -0.32600
N222        N  0.78578025  0.69150432  0.05144487    -0.26900
C223        C  0.78766952  0.69776143  0.08073697    -0.03000
C224        C  0.78668835  0.72834458  0.08402436     0.09300
C225        C  0.78424220  0.73972762  0.05558575     0.03100
H226        H  0.78981929  0.68129889  0.09822659     0.10700
H227        H  0.78326779  0.76297469  0.04925481     0.09800
N228        N  0.78623463  0.61173332  0.00503362    -0.34100
N229        N  0.78623747  0.61173875  0.97552773    -0.26200
C230        C  0.78606471  0.58339054  0.96576627    -0.01500
C231        C  0.78595008  0.56485836  0.99027791     0.07100
C232        C  0.78606003  0.58338142  0.01479174     0.05200
H233        H  0.78600335  0.57682845  0.94256241     0.10300
H234        H  0.78599424  0.57681059  0.03799488     0.09200
N235        N  0.05143887  0.78571388  0.28899394    -0.25200
N236        N  0.03635391  0.78366091  0.26375885    -0.33100
C237        C  0.05557436  0.78416016  0.24077410     0.03100
C238        C  0.08401412  0.78661483  0.25214309     0.09100
C239        C  0.08072997  0.78760603  0.28272439    -0.04000
H240        H  0.04923998  0.78317738  0.21753039     0.09800
H241        H  0.09822263  0.78976503  0.29917875     0.11000
Cu242      Cu  0.99027475  0.78142708  0.26153067     0.44200
Cu243      Cu  0.03107192  0.78628667  0.33052883     0.42000
Cu244      Cu  0.94947756  0.78628052  0.33053942     0.43900
N245        N  0.94419481  0.78365992  0.26377138    -0.32600
N246        N  0.92910971  0.78571034  0.28901113    -0.26900
C247        C  0.89981787  0.78760203  0.28275074    -0.03000
C248        C  0.89653321  0.78661317  0.25217044     0.09300
C249        C  0.92497359  0.78416038  0.24079251     0.03100
H250        H  0.88232486  0.78975892  0.29921076     0.10700
H251        H  0.93130771  0.78317934  0.21754677     0.09800
N252        N  0.97552102  0.78618001  0.36877529    -0.34100
N253        N  0.00502752  0.78618258  0.36877168    -0.26200
C254        C  0.01478690  0.78601805  0.39711869    -0.01500
C255        C  0.99027332  0.78590905  0.41564782     0.07100
C256        C  0.96576054  0.78601372  0.39712457     0.05200
H257        H  0.03798984  0.78595963  0.40368189     0.10300
H258        H  0.94255732  0.78595130  0.40369327     0.09200
N259        N  0.92911364  0.78577369  0.69151578    -0.25200
N260        N  0.94419849  0.78372782  0.71675236    -0.33100
C261        C  0.92497714  0.78423302  0.73973623     0.03100
C262        C  0.89653697  0.78668423  0.72836485     0.09100
C263        C  0.89982175  0.78766703  0.69778322    -0.04000
H264        H  0.93131093  0.78325512  0.76298060     0.09800
H265        H  0.88232886  0.78981994  0.68132704     0.11000
Cu266      Cu  0.99027802  0.78149132  0.71898131     0.44200
Cu267      Cu  0.94948184  0.78633316  0.64998173     0.42000
Cu268      Cu  0.03107594  0.78631603  0.64996756     0.43900
N269        N  0.03635758  0.78371218  0.71673783    -0.32600
N270        N  0.05144282  0.78575169  0.69149705    -0.26900
C271        C  0.08073449  0.78763770  0.69775691    -0.03000
C272        C  0.08401875  0.78665665  0.72833783     0.09300
C273        C  0.05557844  0.78421423  0.73971664     0.03100
H274        H  0.09822765  0.78978579  0.68129603     0.10700
H275        H  0.04924407  0.78324141  0.76296283     0.09800
N276        N  0.00503070  0.78621184  0.61173251    -0.34100
N277        N  0.97552422  0.78621808  0.61173795    -0.26200
C278        C  0.96576289  0.78604868  0.58339175    -0.01500
C279        C  0.99027512  0.78593280  0.56486101     0.07100
C280        C  0.01478924  0.78603838  0.58338257     0.05200
H281        H  0.94255946  0.78599124  0.57683023     0.10300
H282        H  0.03799203  0.78597123  0.57681224     0.09200
N283        N  0.28897709  0.05142945  0.78568021    -0.25200
N284        N  0.26374057  0.03634353  0.78364177    -0.33100
C285        C  0.24075577  0.05556557  0.78415200     0.03100
C286        C  0.25212598  0.08400721  0.78659868     0.09100
C287        C  0.28270863  0.08072301  0.78757376    -0.04000
H288        H  0.21751156  0.04923118  0.78318179     0.09800
H289        H  0.29916299  0.09821558  0.78972235     0.11000
Cu290      Cu  0.26151177  0.99026126  0.78141089     0.44200
Cu291      Cu  0.33051295  0.03106104  0.78623157     0.42000
Cu292      Cu  0.33052646  0.94946208  0.78622382     0.43900
N293        N  0.26375596  0.94417829  0.78363859    -0.32600
N294        N  0.28899784  0.92909259  0.78567383    -0.26900
C295        C  0.28273983  0.89979823  0.78756567    -0.03000
C296        C  0.25215834  0.89651311  0.78659284     0.09300
C297        C  0.24077793  0.92495519  0.78414929     0.03100
H298        H  0.29920067  0.88230548  0.78971157     0.10700
H299        H  0.21753136  0.93128903  0.78318123     0.09800
N300        N  0.36876196  0.97550736  0.78610448    -0.34100
N301        N  0.36875722  0.00501615  0.78610763    -0.26200
C302        C  0.39710444  0.01477741  0.78592985    -0.01500
C303        C  0.41563464  0.99026187  0.78581128     0.07100
C304        C  0.39711222  0.96574626  0.78592455     0.05200
H305        H  0.40366619  0.03797891  0.78586963     0.10300
H306        H  0.40368125  0.94254479  0.78585948     0.09200
N307        N  0.69150832  0.92910553  0.78574063    -0.25200
N308        N  0.71674657  0.94419148  0.78371369    -0.33100
C309        C  0.73973046  0.92496860  0.78422977     0.03100
C310        C  0.72835766  0.89652639  0.78666832     0.09100
C311        C  0.69777454  0.89981107  0.78763230    -0.04000
H312        H  0.76297548  0.93130255  0.78326727     0.09800
H313        H  0.68131813  0.88231807  0.78977088     0.11000
Cu314      Cu  0.71897676  0.99027408  0.78148548     0.44200
Cu315      Cu  0.64997288  0.94947469  0.78627711     0.42000
Cu316      Cu  0.64995595  0.03107284  0.78626442     0.43900
N317        N  0.71672888  0.03635655  0.78370323    -0.32600
N318        N  0.69148543  0.05144194  0.78572529    -0.26900
C319        C  0.69774205  0.08073633  0.78761234    -0.03000
C320        C  0.72832416  0.08402163  0.78665038     0.09300
C321        C  0.73970638  0.05557977  0.78421793     0.03100
H322        H  0.68127971  0.09822898  0.78974748     0.10700
H323        H  0.76295358  0.04924612  0.78325963     0.09800
N324        N  0.61172118  0.00502617  0.78613854    -0.34100
N325        N  0.61172759  0.97551741  0.78614324    -0.26200
C326        C  0.58338114  0.96575437  0.78595956    -0.01500
C327        C  0.56484950  0.99026872  0.78583561     0.07100
C328        C  0.58337036  0.01478554  0.78595176     0.05200
H329        H  0.57682093  0.94255244  0.78589864     0.10300
H330        H  0.57679991  0.03798665  0.78588352     0.09200
C331        C  0.82207261  0.79491562  0.77983488     0.82300
N332        N  0.80301774  0.81808209  0.77588280    -0.76000
C333        C  0.77983359  0.82206259  0.79491269     0.84700
N334        N  0.77589157  0.80301705  0.81808726    -0.76000
C335        C  0.79492718  0.77983669  0.82207242     0.84800
N336        N  0.81809746  0.77588924  0.80302329    -0.77700
C337        C  0.74520468  0.86935269  0.78904200    -0.11200
C338        C  0.76046365  0.84733830  0.79145479    -0.12800
C339        C  0.44765089  0.99026194  0.78563347    -0.16400
C340        C  0.47451299  0.99026260  0.78555652     0.07600
C341        C  0.50597130  0.99026435  0.78556209     0.09500
C342        C  0.53283335  0.99026639  0.78564817    -0.17300
C343        C  0.86936532  0.78905350  0.74521271    -0.11200
C344        C  0.84735083  0.79146242  0.76046981    -0.12800
C345        C  0.99027257  0.78574222  0.44766382    -0.16400
C346        C  0.99027216  0.78567024  0.47452553     0.07600
C347        C  0.99027243  0.78567573  0.50598342     0.09500
C348        C  0.99027342  0.78575662  0.53284509    -0.17300
C349        C  0.78907058  0.74522043  0.86937075    -0.11200
C350        C  0.79147805  0.76047520  0.84735427    -0.12800
C351        C  0.78575156  0.44765218  0.99027510    -0.16400
C352        C  0.78567825  0.47451594  0.99027465     0.07600
C353        C  0.78568488  0.50597627  0.99027492     0.09500
C354        C  0.78576895  0.53283997  0.99027600    -0.17300
C355        C  0.79139733  0.22005388  0.84734868    -0.11200
C356        C  0.78898604  0.23530253  0.86936570    -0.12800
C357        C  0.76041399  0.13320891  0.79144002    -0.11200
C358        C  0.74516238  0.11119497  0.78902496    -0.12800
C359        C  0.86929402  0.19151416  0.74520254    -0.11200
C360        C  0.84728029  0.18910101  0.76045977    -0.12800
C361        C  0.99021804  0.19477250  0.44766356    -0.16400
C362        C  0.99022000  0.19485501  0.47452516     0.07600
C363        C  0.99022179  0.19486097  0.50598296     0.09500
C364        C  0.99022225  0.19478826  0.53284460    -0.17300
C365        C  0.22006730  0.84732463  0.79138573    -0.11200
C366        C  0.23531867  0.86933968  0.78896879    -0.12800
C367        C  0.13320277  0.79143678  0.76043007    -0.11200
C368        C  0.11118935  0.78902573  0.74517886    -0.12800
C369        C  0.19150949  0.74520171  0.86931127    -0.11200
C370        C  0.18909525  0.76045657  0.84729559    -0.12800
C371        C  0.19478171  0.44764319  0.99023218    -0.16400
C372        C  0.19486804  0.47450679  0.99023408     0.07600
C373        C  0.19487532  0.50596697  0.99023581     0.13900
C374        C  0.19480091  0.53283062  0.99023626    -0.17300
C375        C  0.86936187  0.78898353  0.23532892    -0.11200
C376        C  0.84734711  0.79139542  0.22007806    -0.12800
C377        C  0.79146716  0.76043223  0.13321260    -0.11200
C378        C  0.78905798  0.74518341  0.11119670    -0.12800
C379        C  0.74519850  0.86929434  0.19154080    -0.11200
C380        C  0.76045750  0.84728038  0.18912456    -0.12800
C381        C  0.44765289  0.99022115  0.19487035    -0.16400
C382        C  0.47451491  0.99022356  0.19495778     0.07600
C383        C  0.50597321  0.99022591  0.19496464     0.09500
C384        C  0.53283529  0.99022694  0.19488838    -0.17300
C385        C  0.18901504  0.22004401  0.84730535    -0.11200
C386        C  0.19142880  0.23529474  0.86931935    -0.12800
C387        C  0.23527623  0.11117883  0.78897654    -0.11200
C388        C  0.22001588  0.13319158  0.79139510    -0.12800
C389        C  0.13312919  0.18908231  0.76044324    -0.11200
C390        C  0.11111606  0.19149863  0.74519083    -0.12800
C391        C  0.84729126  0.18903446  0.22007633    -0.11200
C392        C  0.86930289  0.19144735  0.23532968    -0.12800
C393        C  0.79141122  0.22001490  0.13320329    -0.11200
C394        C  0.78899872  0.23527136  0.11118858    -0.12800
C395        C  0.76043002  0.13314806  0.18911013    -0.11200
C396        C  0.74517712  0.11113432  0.19152830    -0.12800
C397        C  0.23532099  0.86929644  0.19147044    -0.11200
C398        C  0.22006754  0.84728397  0.18905429    -0.12800
C399        C  0.13319640  0.79139905  0.22003390    -0.11200
C400        C  0.11118378  0.78898615  0.23529269    -0.12800
C401        C  0.19149731  0.74518665  0.11113486    -0.11200
C402        C  0.18908248  0.76043727  0.13315002    -0.12800
C403        C  0.18903105  0.22001607  0.13316207    -0.11200
C404        C  0.19144234  0.23526904  0.11114467    -0.12800
C405        C  0.23528328  0.11113775  0.19148797    -0.11200
C406        C  0.22002601  0.13315324  0.18907328    -0.12800
C407        C  0.13314215  0.18904423  0.22004206    -0.11200
C408        C  0.11112665  0.19145644  0.23529733    -0.12800
loop_ 
_geom_bond_atom_site_label_1 
_geom_bond_atom_site_label_2 
_geom_bond_distance 
_geom_bond_site_symmetry_2 
_ccdc_geom_bond_type 
C1            N2   1.358       .  A
C1            N6   1.358       .  A
C1          C406   1.437       .  S
N2            C3   1.358       .  A
C3            N4   1.358       .  A
C3          C403   1.437       .  S
N4            C5   1.358       .  A
C5            N6   1.358       .  A
C5          C407   1.437       .  S
C7            N8   1.358       .  A
C7           N12   1.358       .  A
C7          C398   1.437       .  S
N8            C9   1.358       .  A
C9           N10   1.358       .  A
C9          C399   1.437       .  S
N10          C11   1.358       .  A
C11          N12   1.358       .  A
C11         C402   1.437       .  S
C13          N14   1.358       .  A
C13          N18   1.358       .  A
C13         C391   1.437       .  S
N14          C15   1.358       .  A
C15          N16   1.358       .  A
C15         C393   1.437       .  S
N16          C17   1.358       .  A
C17          N18   1.358       .  A
C17         C395   1.437       .  S
C19          N20   1.358       .  A
C19          N24   1.358       .  A
C19         C388   1.437       .  S
N20          C21   1.358       .  A
C21          N22   1.358       .  A
C21         C385   1.437       .  S
N22          C23   1.358       .  A
C23          N24   1.358       .  A
C23         C389   1.437       .  S
N25          C29   1.347       .  A
N25          N26   1.323       .  A
N25         Cu33   2.076       .  S
N26          C27   1.345       .  A
N26         Cu32   2.073       .  S
C27          C28   1.379       .  A
C27          H30   1.082       .  S
C28         C397   1.439       .  S
C28          C29   1.381       .  A
C29          H31   1.082       .  S
Cu32         N35   2.073   1_565  S
Cu33         N43   2.076       .  S
Cu34         N36   2.076       .  S
Cu34         N42   2.076       .  S
N35          C39   1.345       .  A
N35          N36   1.323       .  A
N36          C37   1.347       .  A
C37          C38   1.381       .  A
C37          H40   1.082       .  S
C38         C405   1.439       .  S
C38          C39   1.379       .  A
C39          H41   1.082       .  S
N42          C46   1.346       .  A
N42          N43   1.324   1_545  A
N43          C44   1.346       .  A
C44          C45   1.379       .  A
C44          H47   1.082       .  S
C45         C381   1.437       .  S
C45          C46   1.379   1_565  A
C46          H48   1.082       .  S
N49          C53   1.347       .  A
N49          N50   1.323       .  A
N49         Cu57   2.076       .  S
N50          C51   1.345       .  A
N50         Cu56   2.073   1_545  S
C51          C52   1.379       .  A
C51          H54   1.082       .  S
C52         C396   1.439       .  S
C52          C53   1.381       .  A
C53          H55   1.082       .  S
Cu56         N59   2.073       .  S
Cu57         N67   2.076       .  S
Cu58         N60   2.076       .  S
Cu58         N66   2.076       .  S
N59          C63   1.345       .  A
N59          N60   1.323       .  A
N60          C61   1.347       .  A
C61          C62   1.381       .  A
C61          H64   1.082       .  S
C62         C379   1.439       .  S
C62          C63   1.379       .  A
C63          H65   1.082       .  S
N66          C70   1.346       .  A
N66          N67   1.324   1_565  A
N67          C68   1.346       .  A
C68          C69   1.379   1_545  A
C68          H71   1.082       .  S
C69         C384   1.437       .  S
C69          C70   1.379       .  A
C70          H72   1.082       .  S
C73          N74   1.358       .  A
C73          N78   1.358       .  A
C73         C380   1.437       .  S
N74          C75   1.358       .  A
C75          N76   1.358       .  A
C75         C377   1.437       .  S
N76          C77   1.358       .  A
C77          N78   1.358       .  A
C77         C376   1.437       .  S
N79          C83   1.347       .  A
N79          N80   1.323       .  A
N79         Cu87   2.076       .  S
N80          C81   1.345       .  A
N80         Cu86   2.073       .  S
C81          C82   1.379       .  A
C81          H84   1.082       .  S
C82         C386   1.439       .  S
C82          C83   1.381       .  A
C83          H85   1.082       .  S
Cu86         N89   2.073   1_556  S
Cu87         N97   2.076       .  S
Cu88         N90   2.076       .  S
Cu88         N96   2.076       .  S
N89          C93   1.345       .  A
N89          N90   1.323       .  A
N90          C91   1.347       .  A
C91          C92   1.381       .  A
C91          H94   1.082       .  S
C92         C404   1.439       .  S
C92          C93   1.379       .  A
C93          H95   1.082       .  S
N96         C100   1.346       .  A
N96          N97   1.324   1_554  A
N97          C98   1.346       .  A
C98          C99   1.379       .  A
C98         H101   1.082       .  S
C99         C371   1.437       .  S
C99         C100   1.379   1_556  A
C100        H102   1.082       .  S
N103        C107   1.347       .  A
N103        N104   1.323       .  A
N103       Cu111   2.076       .  S
N104        C105   1.345       .  A
N104       Cu110   2.073   1_554  S
C105        C106   1.379       .  A
C105        H108   1.082       .  S
C106        C401   1.439       .  S
C106        C107   1.381       .  A
C107        H109   1.082       .  S
Cu110       N113   2.073       .  S
Cu111       N121   2.076       .  S
Cu112       N114   2.076       .  S
Cu112       N120   2.076       .  S
N113        C117   1.345       .  A
N113        N114   1.323       .  A
N114        C115   1.347       .  A
C115        C116   1.381       .  A
C115        H118   1.082       .  S
C116        C369   1.439       .  S
C116        C117   1.379       .  A
C117        H119   1.082       .  S
N120        C124   1.346       .  A
N120        N121   1.324   1_556  A
N121        C122   1.346       .  A
C122        C123   1.379   1_554  A
C122        H125   1.082       .  S
C123        C374   1.437       .  S
C123        C124   1.379       .  A
C124        H126   1.082       .  S
C127        N128   1.358       .  A
C127        N132   1.358       .  A
C127        C365   1.437       .  S
N128        C129   1.358       .  A
C129        N130   1.358       .  A
C129        C367   1.437       .  S
N130        C131   1.358       .  A
C131        N132   1.358       .  A
C131        C370   1.437       .  S
N133        C137   1.347       .  A
N133        N134   1.323       .  A
N133       Cu141   2.076       .  S
N134        C135   1.345       .  A
N134       Cu140   2.073       .  S
C135        C136   1.379       .  A
C135        H138   1.082       .  S
C136        C392   1.439       .  S
C136        C137   1.381       .  A
C137        H139   1.082       .  S
Cu140       N143   2.073   1_655  S
Cu141       N151   2.076       .  S
Cu142       N144   2.076       .  S
Cu142       N150   2.076       .  S
N143        C147   1.345       .  A
N143        N144   1.323       .  A
N144        C145   1.347       .  A
C145        C146   1.381       .  A
C145        H148   1.082       .  S
C146        C408   1.439       .  S
C146        C147   1.379       .  A
C147        H149   1.082       .  S
N150        C154   1.346       .  A
N150        N151   1.324   1_455  A
N151        C152   1.346       .  A
C152        C153   1.379       .  A
C152        H155   1.082       .  S
C153        C361   1.437       .  S
C153        C154   1.379   1_655  A
C154        H156   1.082       .  S
N157        C161   1.347       .  A
N157        N158   1.323       .  A
N157       Cu165   2.076       .  S
N158        C159   1.345       .  A
N158       Cu164   2.073   1_455  S
C159        C160   1.379       .  A
C159        H162   1.082       .  S
C160        C390   1.439       .  S
C160        C161   1.381       .  A
C161        H163   1.082       .  S
Cu164       N167   2.073       .  S
Cu165       N175   2.076       .  S
Cu166       N168   2.076       .  S
Cu166       N174   2.076       .  S
N167        C171   1.345       .  A
N167        N168   1.323       .  A
N168        C169   1.347       .  A
C169        C170   1.381       .  A
C169        H172   1.082       .  S
C170        C359   1.439       .  S
C170        C171   1.379       .  A
C171        H173   1.082       .  S
N174        C178   1.346       .  A
N174        N175   1.324   1_655  A
N175        C176   1.346       .  A
C176        C177   1.379   1_455  A
C176        H179   1.082       .  S
C177        C364   1.437       .  S
C177        C178   1.379       .  A
C178        H180   1.082       .  S
C181        N182   1.358       .  A
C181        N186   1.358       .  A
C181        C360   1.437       .  S
N182        C183   1.358       .  A
C183        N184   1.358       .  A
C183        C357   1.437       .  S
N184        C185   1.358       .  A
C185        N186   1.358       .  A
C185        C355   1.437       .  S
N187        C191   1.347       .  A
N187        N188   1.323       .  A
N187       Cu195   2.076       .  S
N188        C189   1.345       .  A
N188       Cu194   2.073   1_554  S
C189        C190   1.379       .  A
C189        H192   1.082       .  S
C190        C394   1.439       .  S
C190        C191   1.381       .  A
C191        H193   1.082       .  S
Cu194       N197   2.073       .  S
Cu195       N205   2.076       .  S
Cu196       N198   2.076       .  S
Cu196       N204   2.076       .  S
N197        C201   1.345       .  A
N197        N198   1.323       .  A
N198        C199   1.347       .  A
C199        C200   1.381       .  A
C199        H202   1.082       .  S
C200        C356   1.439       .  S
C200        C201   1.379       .  A
C201        H203   1.082       .  S
N204        C208   1.346       .  A
N204        N205   1.324   1_556  A
N205        C206   1.346       .  A
C206        C207   1.379   1_554  A
C206        H209   1.082       .  S
C207        C351   1.437       .  S
C207        C208   1.379       .  A
C208        H210   1.082       .  S
N211        C215   1.347       .  A
N211        N212   1.323       .  A
N211       Cu219   2.076       .  S
N212        C213   1.345       .  A
N212       Cu218   2.073       .  S
C213        C214   1.379       .  A
C213        H216   1.082       .  S
C214        C349   1.439       .  S
C214        C215   1.381       .  A
C215        H217   1.082       .  S
Cu218       N221   2.073   1_556  S
Cu219       N229   2.076       .  S
Cu220       N222   2.076       .  S
Cu220       N228   2.076       .  S
N221        C225   1.345       .  A
N221        N222   1.323       .  A
N222        C223   1.347       .  A
C223        C224   1.381       .  A
C223        H226   1.082       .  S
C224        C378   1.439       .  S
C224        C225   1.379       .  A
C225        H227   1.082       .  S
N228        C232   1.346       .  A
N228        N229   1.324   1_554  A
N229        C230   1.346       .  A
C230        C231   1.379       .  A
C230        H233   1.082       .  S
C231        C354   1.437       .  S
C231        C232   1.379   1_556  A
C232        H234   1.082       .  S
N235        C239   1.347       .  A
N235        N236   1.323       .  A
N235       Cu243   2.076       .  S
N236        C237   1.345       .  A
N236       Cu242   2.073   1_455  S
C237        C238   1.379       .  A
C237        H240   1.082       .  S
C238        C400   1.439       .  S
C238        C239   1.381       .  A
C239        H241   1.082       .  S
Cu242       N245   2.073       .  S
Cu243       N253   2.076       .  S
Cu244       N246   2.076       .  S
Cu244       N252   2.076       .  S
N245        C249   1.345       .  A
N245        N246   1.323       .  A
N246        C247   1.347       .  A
C247        C248   1.381       .  A
C247        H250   1.082       .  S
C248        C375   1.439       .  S
C248        C249   1.379       .  A
C249        H251   1.082       .  S
N252        C256   1.346       .  A
N252        N253   1.324   1_655  A
N253        C254   1.346       .  A
C254        C255   1.379   1_455  A
C254        H257   1.082       .  S
C255        C345   1.437       .  S
C255        C256   1.379       .  A
C256        H258   1.082       .  S
N259        C263   1.347       .  A
N259        N260   1.323       .  A
N259       Cu267   2.076       .  S
N260        C261   1.345       .  A
N260       Cu266   2.073       .  S
C261        C262   1.379       .  A
C261        H264   1.082       .  S
C262        C343   1.439       .  S
C262        C263   1.381       .  A
C263        H265   1.082       .  S
Cu266       N269   2.073   1_655  S
Cu267       N277   2.076       .  S
Cu268       N270   2.076       .  S
Cu268       N276   2.076       .  S
N269        C273   1.345       .  A
N269        N270   1.323       .  A
N270        C271   1.347       .  A
C271        C272   1.381       .  A
C271        H274   1.082       .  S
C272        C368   1.439       .  S
C272        C273   1.379       .  A
C273        H275   1.082       .  S
N276        C280   1.346       .  A
N276        N277   1.324   1_455  A
N277        C278   1.346       .  A
C278        C279   1.379       .  A
C278        H281   1.082       .  S
C279        C348   1.437       .  S
C279        C280   1.379   1_655  A
C280        H282   1.082       .  S
N283        C287   1.347       .  A
N283        N284   1.323       .  A
N283       Cu291   2.076       .  S
N284        C285   1.345       .  A
N284       Cu290   2.073   1_545  S
C285        C286   1.379       .  A
C285        H288   1.082       .  S
C286        C387   1.439       .  S
C286        C287   1.381       .  A
C287        H289   1.082       .  S
Cu290       N293   2.073       .  S
Cu291       N301   2.076       .  S
Cu292       N294   2.076       .  S
Cu292       N300   2.076       .  S
N293        C297   1.345       .  A
N293        N294   1.323       .  A
N294        C295   1.347       .  A
C295        C296   1.381       .  A
C295        H298   1.082       .  S
C296        C366   1.439       .  S
C296        C297   1.379       .  A
C297        H299   1.082       .  S
N300        C304   1.346       .  A
N300        N301   1.324   1_565  A
N301        C302   1.346       .  A
C302        C303   1.379   1_545  A
C302        H305   1.082       .  S
C303        C339   1.437       .  S
C303        C304   1.379       .  A
C304        H306   1.082       .  S
N307        C311   1.347       .  A
N307        N308   1.323       .  A
N307       Cu315   2.076       .  S
N308        C309   1.345       .  A
N308       Cu314   2.073       .  S
C309        C310   1.379       .  A
C309        H312   1.082       .  S
C310        C337   1.439       .  S
C310        C311   1.381       .  A
C311        H313   1.082       .  S
Cu314       N317   2.073   1_565  S
Cu315       N325   2.076       .  S
Cu316       N318   2.076       .  S
Cu316       N324   2.076       .  S
N317        C321   1.345       .  A
N317        N318   1.323       .  A
N318        C319   1.347       .  A
C319        C320   1.381       .  A
C319        H322   1.082       .  S
C320        C358   1.439       .  S
C320        C321   1.379       .  A
C321        H323   1.082       .  S
N324        C328   1.346       .  A
N324        N325   1.324   1_545  A
N325        C326   1.346       .  A
C326        C327   1.379       .  A
C326        H329   1.082       .  S
C327        C342   1.437       .  S
C327        C328   1.379   1_565  A
C328        H330   1.082       .  S
C331        N332   1.358       .  A
C331        N336   1.358       .  A
C331        C344   1.437       .  S
N332        C333   1.358       .  A
C333        N334   1.358       .  A
C333        C338   1.437       .  S
N334        C335   1.358       .  A
C335        N336   1.358       .  A
C335        C350   1.437       .  S
C337        C338   1.207       .  T
C339        C340   1.206       .  T
C340        C341   1.412       .  S
C341        C342   1.206       .  T
C343        C344   1.207       .  T
C345        C346   1.206       .  T
C346        C347   1.412       .  S
C347        C348   1.206       .  T
C349        C350   1.207       .  T
C351        C352   1.206       .  T
C352        C353   1.412       .  S
C353        C354   1.206       .  T
C355        C356   1.207       .  T
C357        C358   1.207       .  T
C359        C360   1.207       .  T
C361        C362   1.206       .  T
C362        C363   1.412       .  S
C363        C364   1.206       .  T
C365        C366   1.207       .  T
C367        C368   1.207       .  T
C369        C370   1.207       .  T
C371        C372   1.206       .  T
C372        C373   1.412       .  S
C373        C374   1.206       .  T
C375        C376   1.207       .  T
C377        C378   1.207       .  T
C379        C380   1.207       .  T
C381        C382   1.206       .  T
C382        C383   1.412       .  S
C383        C384   1.206       .  T
C385        C386   1.207       .  T
C387        C388   1.207       .  T
C389        C390   1.207       .  T
C391        C392   1.207       .  T
C393        C394   1.207       .  T
C395        C396   1.207       .  T
C397        C398   1.207       .  T
C399        C400   1.207       .  T
C401        C402   1.207       .  T
C403        C404   1.207       .  T
C405        C406   1.207       .  T
C407        C408   1.207       .  T
