geometry optimzed in LAMMPS
_audit_creation_date              2020-12-01 
_audit_creation_method            'lammps2cif' 
_symmetry_space_group_name_H-M    'P1' 
_symmetry_Int_Tables_number       1 
_symmetry_cell_setting            triclinic 
loop_ 
_symmetry_equiv_pos_as_xyz 
  x,y,z 
_cell_length_a                    46.52906894 
_cell_length_b                    46.53382462741827 
_cell_length_c                    46.309220681814466 
_cell_angle_alpha                 88.9143841152513 
_cell_angle_beta                  90.13415593825042 
_cell_angle_gamma                 89.94068302159445 
loop_ 
_atom_site_label 
_atom_site_type_symbol 
_atom_site_fract_x 
_atom_site_fract_y 
_atom_site_fract_z 
_atom_site_charge 
C1          C  0.19350787  0.15044799  0.17049729     0.79700
N2          N  0.19870999  0.16839807  0.14757988    -0.78600
C3          C  0.18095108  0.19101731  0.14163926     0.82200
N4          N  0.15774558  0.19548661  0.15878656    -0.78500
C5          C  0.15229197  0.17770381  0.18174227     0.82300
N6          N  0.17026547  0.15528202  0.18744299    -0.80300
C7          C  0.17312214  0.73739661  0.22035104     0.79700
N8          N  0.19031661  0.76045337  0.22507218    -0.78600
C9          C  0.21348209  0.76577829  0.20794257     0.82200
N10         N  0.21918254  0.74796497  0.18575623    -0.78500
C11         C  0.20214485  0.72490327  0.18069497     0.82300
N12         N  0.17914606  0.71981919  0.19805292    -0.80300
C13         C  0.73423229  0.21090544  0.16489565     0.79700
N14         N  0.71724466  0.18792241  0.17122537    -0.78600
C15         C  0.72321433  0.17037102  0.19425263     0.82200
N16         N  0.74662142  0.17588878  0.21091039    -0.78500
C17         C  0.76382634  0.19879155  0.20478994     0.82300
N18         N  0.75756447  0.21609547  0.18167637    -0.80300
C19         C  0.20869668  0.16961062  0.72802218     0.79700
N20         N  0.21430427  0.18689361  0.75071529    -0.78600
C21         C  0.19691159  0.20961099  0.75642888     0.82200
N22         N  0.17370419  0.21483923  0.73922196    -0.78500
C23         C  0.16785412  0.19780102  0.71643863     0.82300
N24         N  0.18537512  0.17515100  0.71108639    -0.80300
N25         N  0.30347203  0.02161479  0.19597338    -0.27800
N26         N  0.28029569  0.00643565  0.20231151    -0.35700
C27         C  0.25716121  0.02375695  0.20087224     0.00500
C28         C  0.26617823  0.05123535  0.19307703     0.06600
C29         C  0.29574345  0.04898050  0.19015228    -0.06500
H30         H  0.23533068  0.01662551  0.20450882     0.07200
H31         H  0.31061895  0.06591089  0.18419478     0.08400
Cu32       Cu  0.28144731  0.96253215  0.21090082     0.44200
Cu33       Cu  0.34429684  0.00392773  0.19518052     0.42000
Cu34       Cu  0.35056548  0.92623547  0.20302702     0.43900
N35         N  0.28688116  0.91828012  0.21286271    -0.35200
N36         N  0.31171233  0.90496132  0.20934218    -0.29400
C37         C  0.30718061  0.87638600  0.21022295    -0.05500
C38         C  0.27810854  0.87146560  0.21469559     0.06700
C39         C  0.26600035  0.89859418  0.21627927     0.00500
H40         H  0.32385235  0.86043600  0.20763294     0.08100
H41         H  0.24348716  0.90378031  0.21877272     0.07200
N42         N  0.38556812  0.95376586  0.19873364    -0.36600
N43         N  0.38302975  0.98199434  0.19597968    -0.28800
C44         C  0.40933549  0.99376435  0.19438439    -0.04100
C45         C  0.42949500  0.97203715  0.19622103     0.04600
C46         C  0.41368968  0.94685075  0.19894434     0.02600
H47         H  0.41348746  0.01658805  0.19234986     0.07800
H48         H  0.42185040  0.92516605  0.20127436     0.06600
N49         N  0.63800125  0.91191128  0.20421450    -0.27800
N50         N  0.66124953  0.92796704  0.20648339    -0.35700
C51         C  0.68460001  0.91092081  0.20598059     0.00500
C52         C  0.67556681  0.88274191  0.20306446     0.06600
C53         C  0.64585394  0.88425562  0.20199688    -0.06500
H54         H  0.70651117  0.91860859  0.20686401     0.07200
H55         H  0.63095579  0.86662067  0.19963851     0.08400
Cu56       Cu  0.65968610  0.97236779  0.20859516     0.44200
Cu57       Cu  0.59680462  0.92851659  0.20348702     0.42000
Cu58       Cu  0.58932988  0.00634133  0.20132232     0.43900
N59         N  0.65318710  0.01642356  0.20694572    -0.35200
N60         N  0.62784972  0.02900218  0.20374053    -0.29400
C61         C  0.63167896  0.05770245  0.20253883    -0.05500
C62         C  0.66080646  0.06340856  0.20539506     0.06700
C63         C  0.67368525  0.03666673  0.20811193     0.00500
H64         H  0.61449650  0.07322104  0.19995753     0.08100
H65         H  0.69640449  0.03212140  0.21020651     0.07200
N66         N  0.55478053  0.97788025  0.20070911    -0.36600
N67         N  0.55772224  0.94960998  0.20169025    -0.28800
C68         C  0.53160241  0.93733540  0.20117485    -0.04100
C69         C  0.51113441  0.95879911  0.19972562     0.04600
C70         C  0.52658079  0.98431673  0.19949144     0.02600
H71         H  0.52780471  0.91439948  0.20175346     0.07800
H72         H  0.51812391  0.00597034  0.19861484     0.06600
C73         C  0.75935247  0.74311723  0.15799773     0.79700
N74         N  0.74190301  0.76570163  0.16373919    -0.78600
C75         C  0.74780109  0.78340139  0.18596446     0.82200
N76         N  0.77146473  0.77834364  0.20254386    -0.78500
C77         C  0.78911565  0.75579660  0.19708428     0.82300
N78         N  0.78294073  0.73830380  0.17475152    -0.80300
N79         N  0.20191213  0.30267727  0.01117653    -0.27800
N80         N  0.20816632  0.27962269  0.99618391    -0.35700
C81         C  0.20735455  0.25635038  0.01380791     0.00500
C82         C  0.20011204  0.26501822  0.04134125     0.06600
C83         C  0.19679072  0.29462044  0.03876816    -0.06500
H84         H  0.21103340  0.23462172  0.00678846     0.07200
H85         H  0.19105644  0.30930432  0.05564136     0.08400
Cu86       Cu  0.21556260  0.28031042  0.95200677     0.44200
Cu87       Cu  0.20031671  0.34388321  0.99302219     0.42000
Cu88       Cu  0.20366009  0.34783220  0.91442048     0.43900
N89         N  0.21357794  0.28444023  0.90736090    -0.35200
N90         N  0.20819818  0.30898006  0.89355495    -0.29400
C91         C  0.20607724  0.30403371  0.86508332    -0.05500
C92         C  0.21062364  0.27498266  0.86071696     0.06700
C93         C  0.21537055  0.26329464  0.88805385     0.00500
H94         H  0.20147245  0.32039223  0.84881303     0.08100
H95         H  0.21878175  0.24087660  0.89366828     0.07200
N96         N  0.20178057  0.38355289  0.94057198    -0.36600
N97         N  0.20066277  0.38217251  0.96910485    -0.28800
C98         C  0.20012357  0.40904522  0.97934592    -0.04100
C99         C  0.20093106  0.42826250  0.95609300     0.04600
C100        C  0.20194952  0.41131131  0.93193420     0.02600
H101        H  0.19929955  0.41403548  0.00202524     0.07800
H102        H  0.20294645  0.41864184  0.90962764     0.06600
N103        N  0.20268277  0.63273680  0.92634220    -0.27800
N104        N  0.20843418  0.65589818  0.94137350    -0.35700
C105        C  0.20789436  0.67907851  0.92362730     0.00500
C106        C  0.20136790  0.67016668  0.89600147     0.06600
C107        C  0.19816294  0.64060286  0.89860274    -0.06500
H108        H  0.21133714  0.70086758  0.93056672     0.07200
H109        H  0.19296590  0.62580717  0.88163438     0.08400
Cu110      Cu  0.21524909  0.65534865  0.98554041     0.44200
Cu111      Cu  0.20106959  0.59157212  0.94436376     0.42000
Cu112      Cu  0.20620355  0.58707796  0.02261110     0.43900
N113        N  0.21510952  0.65053121  0.03003301    -0.35200
N114        N  0.21094584  0.62571879  0.04372777    -0.29400
C115        C  0.21013602  0.63026254  0.07232651    -0.05500
C116        C  0.21428350  0.65932655  0.07681346     0.06700
C117        C  0.21738931  0.67146162  0.04948568     0.00500
H118        H  0.20668206  0.61363926  0.08859142     0.08100
H119        H  0.22007826  0.69400364  0.04402303     0.07200
N120        N  0.20340684  0.55154798  0.99634071    -0.36600
N121        N  0.20159777  0.55310886  0.96785146    -0.28800
C122        C  0.20050047  0.52631297  0.95745395    -0.04100
C123        C  0.20166990  0.50696745  0.98058736     0.04600
C124        C  0.20347716  0.52375548  0.00481501     0.02600
H125        H  0.19903759  0.52145846  0.93477216     0.07800
H126        H  0.20491374  0.51628570  0.02706253     0.06600
C127        C  0.15297946  0.75683324  0.75570172     0.79700
N128        N  0.15895036  0.73885321  0.77838715    -0.78600
C129        C  0.18206438  0.74366367  0.79565339     0.82200
N130        N  0.19914654  0.76680883  0.79013799    -0.78500
C131        C  0.19333650  0.78498453  0.76755934     0.82300
N132        N  0.17024456  0.77982692  0.75045660    -0.80300
N133        N  0.02261404  0.19732654  0.29070413    -0.27800
N134        N  0.00669330  0.20037357  0.26718963    -0.35700
C135        C  0.02367158  0.19858609  0.24382391     0.00500
C136        C  0.05170987  0.19402879  0.25303658     0.06600
C137        C  0.05014990  0.19332611  0.28294775    -0.06500
H138        H  0.01601002  0.20000027  0.22177327     0.07200
H139        H  0.06771272  0.19028432  0.29804360     0.08400
Cu140      Cu  0.96249392  0.20586670  0.26818488     0.44200
Cu141      Cu  0.00589002  0.19871892  0.33215761     0.42000
Cu142      Cu  0.92814178  0.20453161  0.33866564     0.43900
N143        N  0.91841042  0.20786909  0.27423476    -0.35200
N144        N  0.90572149  0.20687457  0.29975002    -0.29400
C145        C  0.87703540  0.20735130  0.29581226    -0.05500
C146        C  0.87141237  0.20892523  0.26639053     0.06700
C147        C  0.89822404  0.20923028  0.25346053     0.00500
H148        H  0.86147446  0.20654589  0.31312456     0.08100
H149        H  0.90282382  0.20961622  0.23056903     0.07200
N150        N  0.95613575  0.20267017  0.37377810    -0.36600
N151        N  0.98437735  0.20068407  0.37128084    -0.28800
C152        C  0.99624958  0.20004823  0.39778702    -0.04100
C153        C  0.97454461  0.20162141  0.41800276     0.04600
C154        C  0.94932000  0.20328666  0.40200400     0.02600
H155        H  0.01907432  0.19842470  0.40204041     0.07800
H156        H  0.92760708  0.20485294  0.41010145     0.06600
N157        N  0.91108317  0.20042526  0.62653898    -0.27800
N158        N  0.92637215  0.20622993  0.64978011    -0.35700
C159        C  0.90875918  0.20718290  0.67272348     0.00500
C160        C  0.88103009  0.20152017  0.66348302     0.06600
C161        C  0.88337640  0.19728493  0.63406173    -0.06500
H162        H  0.91577842  0.21106353  0.69458885     0.07200
H163        H  0.86622723  0.19245866  0.61911006     0.08400
Cu164      Cu  0.97059134  0.21125083  0.64921737     0.44200
Cu165      Cu  0.92848998  0.19741709  0.58563558     0.42000
Cu166      Cu  0.00580123  0.20170141  0.57982030     0.43900
N167        N  0.01475632  0.21036580  0.64373331    -0.35200
N168        N  0.02764623  0.20612591  0.61874969    -0.29400
C169        C  0.05624422  0.20518518  0.62312892    -0.05500
C170        C  0.06161536  0.20928222  0.65222418     0.06700
C171        C  0.03476033  0.21252097  0.66455901     0.00500
H172        H  0.07192915  0.20175598  0.60633167     0.08100
H173        H  0.02998228  0.21534824  0.68717839     0.07200
N174        N  0.97838873  0.20009875  0.54430991    -0.36600
N175        N  0.95011890  0.19856358  0.54663541    -0.28800
C176        C  0.93839349  0.19855865  0.52008497    -0.04100
C177        C  0.96024417  0.20010793  0.49998441     0.04600
C178        C  0.98540355  0.20106041  0.51610880     0.02600
H179        H  0.91555725  0.19769590  0.51573099     0.07800
H180        H  0.00717308  0.20263474  0.50810714     0.06600
C181        C  0.78068650  0.18768933  0.73566437     0.79700
N182        N  0.77541345  0.20536176  0.75810170    -0.78600
C183        C  0.75296570  0.20016543  0.77620507     0.82200
N184        N  0.73586040  0.17701282  0.77172969    -0.78500
C185        C  0.74090064  0.15917544  0.74943127     0.82300
N186        N  0.76337344  0.16464029  0.73154370    -0.80300
N187        N  0.73404605  0.30620490  0.90706845    -0.27800
N188        N  0.72932929  0.28235006  0.92225296    -0.35700
C189        C  0.73040041  0.25983821  0.90453312     0.00500
C190        C  0.73623821  0.26996138  0.87683584     0.06600
C191        C  0.73849591  0.29949160  0.87930720    -0.06500
H192        H  0.72766769  0.23768696  0.91147853     0.07200
H193        H  0.74281992  0.31502962  0.86220116     0.08400
Cu194      Cu  0.72286146  0.28122152  0.96655477     0.44200
Cu195      Cu  0.73409530  0.34671487  0.92482263     0.42000
Cu196      Cu  0.72921541  0.34905013  0.00281226     0.43900
N197        N  0.72212054  0.28517663  0.01107486    -0.35200
N198        N  0.72515039  0.30990628  0.02430579    -0.29400
C199        C  0.72539208  0.30504494  0.05300955    -0.05500
C200        C  0.72213481  0.27582083  0.05815032     0.06700
C201        C  0.72008198  0.26391930  0.03102603     0.00500
H202        H  0.72787658  0.32160635  0.06889880     0.08100
H203        H  0.71820294  0.24137091  0.02607080     0.07200
N204        N  0.73149072  0.38525092  0.97631257    -0.36600
N205        N  0.73306318  0.38441875  0.94784558    -0.28800
C206        C  0.73387596  0.41144298  0.93711952    -0.04100
C207        C  0.73289256  0.43015480  0.95989647     0.04600
C208        C  0.73134785  0.41281174  0.98448808     0.02600
H209        H  0.73517197  0.41705818  0.91437200     0.07800
H210        H  0.73007069  0.41951569  0.00666916     0.06600
N211        N  0.73545830  0.63460534  0.03022410    -0.27800
N212        N  0.72899731  0.65801836  0.01496696    -0.35700
C213        C  0.72988236  0.68083679  0.03228779     0.00500
C214        C  0.73742716  0.67139664  0.05981537     0.06600
C215        C  0.74083713  0.64192649  0.05766199    -0.06500
H216        H  0.72608766  0.70277093  0.02509854     0.07200
H217        H  0.74678216  0.62685440  0.07471719     0.08400
Cu218      Cu  0.72111017  0.65833302  0.97096496     0.44200
Cu219      Cu  0.73688162  0.59393696  0.01285840     0.42000
Cu220      Cu  0.72961783  0.59108339  0.93471257     0.43900
N221        N  0.72119377  0.65468223  0.92650005    -0.35200
N222        N  0.72511038  0.63017358  0.91311148    -0.29400
C223        C  0.72627520  0.63542656  0.88447239    -0.05500
C224        C  0.72268498  0.66467805  0.87961283     0.06700
C225        C  0.71947321  0.67615689  0.90678372     0.00500
H226        H  0.72981166  0.61917646  0.86846198     0.08100
H227        H  0.71727175  0.69861810  0.91198385     0.07200
N228        N  0.73293537  0.55516839  0.96157080    -0.36600
N229        N  0.73554832  0.55614020  0.98997157    -0.28800
C230        C  0.73662127  0.52915177  0.00080867    -0.04100
C231        C  0.73462626  0.51032659  0.97818117     0.04600
C232        C  0.73230887  0.52757205  0.95357346     0.02600
H233        H  0.73851312  0.52363819  0.02354672     0.07800
H234        H  0.73004190  0.52078681  0.93148942     0.06600
N235        N  0.91743768  0.73081884  0.30748309    -0.27800
N236        N  0.93306344  0.72494112  0.28456687    -0.35700
C237        C  0.91623971  0.72637667  0.26090506     0.00500
C238        C  0.88866159  0.73374142  0.26934790     0.06600
C239        C  0.89031059  0.73633381  0.29907040    -0.06500
H240        H  0.92380212  0.72323114  0.23912488     0.07200
H241        H  0.87313454  0.74196819  0.31361708     0.08400
Cu242      Cu  0.97692580  0.71763315  0.28678802     0.44200
Cu243      Cu  0.93388008  0.73172879  0.34905702     0.42000
Cu244      Cu  0.01116892  0.72850845  0.35697458     0.43900
N245        N  0.02093164  0.71995017  0.29313607    -0.35200
N246        N  0.03349809  0.72494532  0.31819980    -0.29400
C247        C  0.06204411  0.72732897  0.31396065    -0.05500
C248        C  0.06766468  0.72330633  0.28491912     0.06700
C249        C  0.04106738  0.71865394  0.27246550     0.00500
H250        H  0.07752612  0.73167071  0.33078214     0.08100
H251        H  0.03650111  0.71558858  0.24981603     0.07200
N252        N  0.98289026  0.72978397  0.39181897    -0.36600
N253        N  0.95465658  0.73090479  0.38868531    -0.28800
C254        C  0.94230621  0.73118707  0.41489573    -0.04100
C255        C  0.96367340  0.73023494  0.43565335     0.04600
C256        C  0.98923016  0.72934558  0.42023632     0.02600
H257        H  0.91936907  0.73201468  0.41857711     0.07800
H258        H  0.01082824  0.72835544  0.42887526     0.06600
N259        N  0.02417878  0.73745686  0.64532752    -0.27800
N260        N  0.00841834  0.73293230  0.66862856    -0.35700
C261        C  0.02533896  0.73399533  0.69214895     0.00500
C262        C  0.05322743  0.73962494  0.68326357     0.06600
C263        C  0.05161098  0.74171016  0.65336787    -0.06500
H264        H  0.01768200  0.73153778  0.71408749     0.07200
H265        H  0.06904019  0.74591118  0.63846829     0.08400
Cu266      Cu  0.96444103  0.72726775  0.66701445     0.44200
Cu267      Cu  0.00704171  0.73752531  0.60393963     0.42000
Cu268      Cu  0.92884026  0.73319558  0.59698260     0.43900
N269        N  0.92041962  0.72950937  0.66162131    -0.35200
N270        N  0.90711850  0.73253221  0.63647557    -0.29400
C271        C  0.87865855  0.73503244  0.64133282    -0.05500
C272        C  0.87395483  0.73317339  0.67092135     0.06700
C273        C  0.90096937  0.72968796  0.68296886     0.00500
H274        H  0.86261073  0.73787190  0.62457814     0.08100
H275        H  0.90629199  0.72818444  0.70569943     0.07200
N276        N  0.95720973  0.73301315  0.56201490    -0.36600
N277        N  0.98546821  0.73465656  0.56483792    -0.28800
C278        C  0.99763274  0.73395259  0.53856089    -0.04100
C279        C  0.97617978  0.73180921  0.51806959     0.04600
C280        C  0.95073030  0.73123350  0.53370540     0.02600
H281        H  0.02053036  0.73496182  0.53465056     0.07800
H282        H  0.92910523  0.72964489  0.52527561     0.06600
N283        N  0.30039191  0.91533709  0.74106030    -0.27800
N284        N  0.27698944  0.93031088  0.73485602    -0.35700
C285        C  0.25396162  0.91305895  0.73755565     0.00500
C286        C  0.26331213  0.88583652  0.74596650     0.06600
C287        C  0.29293833  0.88817924  0.74799483    -0.06500
H288        H  0.23203237  0.92003739  0.73403398     0.07200
H289        H  0.30808823  0.87140169  0.75384361     0.08400
Cu290      Cu  0.27767472  0.97372507  0.72402236     0.44200
Cu291      Cu  0.34124281  0.93268794  0.73965519     0.42000
Cu292      Cu  0.34722857  0.00959427  0.72552342     0.43900
N293        N  0.28299524  0.01780841  0.71958893    -0.35200
N294        N  0.30805789  0.03111463  0.72080287    -0.29400
C295        C  0.30345433  0.05970738  0.71939931    -0.05500
C296        C  0.27409873  0.06460102  0.71696943     0.06700
C297        C  0.26191071  0.03746087  0.71711044     0.00500
H298        H  0.32024196  0.07571980  0.72046798     0.08100
H299        H  0.23925494  0.03229922  0.71667942     0.07200
N300        N  0.38242899  0.98222455  0.73140599    -0.36600
N301        N  0.37994542  0.95427306  0.73648018    -0.28800
C302        C  0.40625947  0.94259895  0.73916310    -0.04100
C303        C  0.42641164  0.96411529  0.73573659     0.04600
C304        C  0.41056258  0.98905146  0.73080818     0.02600
H305        H  0.41040993  0.92002525  0.74338642     0.07800
H306        H  0.41871810  0.01053846  0.72699471     0.06600
N307        N  0.63356735  0.02820274  0.73507872    -0.27800
N308        N  0.65689588  0.01299831  0.72988144    -0.35700
C309        C  0.67980641  0.03058714  0.72941396     0.00500
C310        C  0.67041741  0.05823284  0.73480501     0.06600
C311        C  0.64095517  0.05586083  0.73830115    -0.06500
H312        H  0.70173277  0.02357787  0.72626602     0.07200
H313        H  0.62593488  0.07292537  0.74290431     0.08400
Cu314      Cu  0.65616348  0.96885909  0.72570572     0.44200
Cu315      Cu  0.59299387  0.01029644  0.73782109     0.42000
Cu316      Cu  0.58747558  0.93244055  0.73792109     0.43900
N317        N  0.65135663  0.92475797  0.72897273    -0.35200
N318        N  0.62682185  0.91135400  0.73429527    -0.29400
C319        C  0.63202703  0.88293702  0.73687195    -0.05500
C320        C  0.66116272  0.87832339  0.73267042     0.06700
C321        C  0.67264928  0.90533744  0.72770169     0.00500
H322        H  0.61580092  0.86686854  0.74146209     0.08100
H323        H  0.69503494  0.91067170  0.72434744     0.07200
N324        N  0.55208809  0.95995783  0.73826018    -0.36600
N325        N  0.55440270  0.98828230  0.73811387    -0.28800
C326        C  0.52801346  0.00001847  0.73755415    -0.04100
C327        C  0.50799334  0.97816895  0.73738711     0.04600
C328        C  0.52399960  0.95294986  0.73785702     0.02600
H329        H  0.52372129  0.02288324  0.73703826     0.07800
H330        H  0.51599366  0.93115211  0.73751696     0.06600
C331        C  0.73959973  0.73330254  0.77590765     0.79700
N332        N  0.72257083  0.75640809  0.77010389    -0.78600
C333        C  0.72845119  0.77462382  0.74766255     0.82200
N334        N  0.75184428  0.76961753  0.73094929    -0.78500
C335        C  0.76918614  0.74662342  0.73648333     0.82300
N336        N  0.76296894  0.72858326  0.75907191    -0.80300
C337        C  0.66787134  0.82882193  0.75369592    -0.13900
C338        C  0.67727378  0.85099047  0.73507430     0.08300
C339        C  0.70298003  0.84741386  0.71971153    -0.13900
C340        C  0.71922656  0.82231443  0.72320848    -0.13900
C341        C  0.71030562  0.80041727  0.74247912     0.08300
C342        C  0.68432337  0.80387660  0.75753482    -0.13900
H343        H  0.64826077  0.83112636  0.76598151     0.12300
H344        H  0.71059544  0.86408996  0.70501928     0.12300
H345        H  0.73908578  0.82037007  0.71125704     0.12300
H346        H  0.67678965  0.78742880  0.77253129     0.12300
C347        C  0.47648018  0.98215290  0.73595731    -0.16900
C348        C  0.45792409  0.96010282  0.73714313    -0.32100
H349        H  0.46846498  0.00401986  0.73407305     0.12100
H350        H  0.46591481  0.93827038  0.73957510     0.12700
C351        C  0.84347957  0.72223125  0.71415147    -0.13900
C352        C  0.84649241  0.73551985  0.68682630     0.08300
C353        C  0.82351496  0.75177300  0.67548261    -0.13900
C354        C  0.79830533  0.75527548  0.69151687    -0.13900
C355        C  0.79538080  0.74212047  0.71896167     0.08300
C356        C  0.81813487  0.72528077  0.72992803    -0.13900
H357        H  0.86073457  0.70937894  0.72336609     0.12300
H358        H  0.82531573  0.76241301  0.65457095     0.12300
H359        H  0.78112309  0.76833822  0.68244770     0.12300
H360        H  0.81663345  0.71494179  0.75101896     0.12300
C361        C  0.95902215  0.73034328  0.46729202    -0.16900
C362        C  0.98073383  0.73078586  0.48645524    -0.32100
H363        H  0.93696906  0.73052288  0.47486110     0.12100
H364        H  0.00278005  0.73090559  0.47886307     0.12700
C365        C  0.74227394  0.67064482  0.82950340    -0.13900
C366        C  0.72504237  0.68087782  0.85196736     0.08300
C367        C  0.71135171  0.70760110  0.84849438    -0.13900
C368        C  0.71538552  0.72415294  0.82338187    -0.13900
C369        C  0.73359787  0.71454604  0.80137347     0.08300
C370        C  0.74672107  0.68744102  0.80453341    -0.13900
H371        H  0.75319034  0.65016032  0.83166460     0.12300
H372        H  0.69770925  0.71586413  0.86534034     0.12300
H373        H  0.70487966  0.74489070  0.82162586     0.12300
H374        H  0.76070808  0.67936093  0.78787523     0.12300
C375        C  0.73331578  0.46179589  0.95750396    -0.16900
C376        C  0.73431014  0.47867702  0.98068410    -0.32100
H377        H  0.73305676  0.47128791  0.93591530     0.12100
H378        H  0.73504985  0.46918021  0.00226394     0.12700
C379        C  0.76104424  0.24580648  0.80320091    -0.13900
C380        C  0.74786687  0.21872237  0.80133316     0.08300
C381        C  0.73022675  0.20910677  0.82413695    -0.13900
C382        C  0.72641296  0.22582970  0.84854635    -0.13900
C383        C  0.73977467  0.25274628  0.85054529     0.08300
C384        C  0.75684743  0.26275612  0.82748221    -0.13900
H385        H  0.77466573  0.25387873  0.78594752     0.12300
H386        H  0.71974860  0.18836255  0.82341452     0.12300
H387        H  0.71286489  0.21769532  0.86582071     0.12300
H388        H  0.76751438  0.28337592  0.82848131     0.12300
C389        C  0.69606488  0.13095654  0.75938455    -0.13900
C390        C  0.72260172  0.13358990  0.74516399     0.08300
C391        C  0.73166198  0.11134188  0.72715713    -0.13900
C392        C  0.71472229  0.08683580  0.72378546    -0.13900
C393        C  0.68819106  0.08429297  0.73797313     0.08300
C394        C  0.67894580  0.10666574  0.75564618    -0.13900
H395        H  0.68845311  0.14770653  0.77338323     0.12300
H396        H  0.75203076  0.11266454  0.71594997     0.12300
H397        H  0.72228807  0.06998803  0.70988871     0.12300
H398        H  0.65872206  0.10516962  0.76708071     0.12300
C399        C  0.85276249  0.21371592  0.70757430    -0.13900
C400        C  0.85482656  0.19916315  0.68136030     0.08300
C401        C  0.83187390  0.18178731  0.67261721    -0.13900
C402        C  0.80766715  0.17839180  0.69009936    -0.13900
C403        C  0.80570532  0.19262062  0.71653098     0.08300
C404        C  0.82833296  0.21066339  0.72489264    -0.13900
H405        H  0.87001727  0.22748963  0.71469899     0.12300
H406        H  0.83290932  0.17016955  0.65261555     0.12300
H407        H  0.79056013  0.16442927  0.68296772     0.12300
H408        H  0.82747827  0.22191480  0.74512879     0.12300
C409        C  0.97851383  0.20124991  0.44971905    -0.16900
C410        C  0.95635817  0.20100528  0.46826941    -0.32100
H411        H  0.00039643  0.20074552  0.45787210     0.12100
H412        H  0.93447663  0.20112564  0.46011111     0.12700
C413        C  0.23942858  0.81225172  0.77328564    -0.13900
C414        C  0.21143483  0.81061691  0.76201067     0.08300
C415        C  0.20068335  0.83387696  0.74547229    -0.13900
C416        C  0.21745643  0.85831948  0.74045966    -0.13900
C417        C  0.24551545  0.85993789  0.75155331     0.08300
C418        C  0.25636730  0.83658785  0.76794936    -0.13900
H419        H  0.24832830  0.79463798  0.78605756     0.12300
H420        H  0.17913566  0.83334204  0.73660373     0.12300
H421        H  0.20848723  0.87578533  0.72756730     0.12300
H422        H  0.27781584  0.83720183  0.77699371     0.12300
C423        C  0.10291069  0.75870048  0.69115518    -0.13900
C424        C  0.07891064  0.74358732  0.70175160     0.08300
C425        C  0.07959184  0.73256848  0.73023232    -0.13900
C426        C  0.10382283  0.73645921  0.74766210    -0.13900
C427        C  0.12765474  0.75186190  0.73711635     0.08300
C428        C  0.12691905  0.76298218  0.70871574    -0.13900
H429        H  0.10301776  0.76768441  0.66943189     0.12300
H430        H  0.06152830  0.72069279  0.73901034     0.12300
H431        H  0.10372674  0.72779611  0.76953401     0.12300
H432        H  0.14500971  0.77488509  0.69997993     0.12300
C433        C  0.20959202  0.71609867  0.86811537    -0.13900
C434        C  0.19740075  0.68850258  0.86979362     0.08300
C435        C  0.18087602  0.67885357  0.84647572    -0.13900
C436        C  0.17606724  0.69668089  0.82230663    -0.13900
C437        C  0.18801440  0.72438884  0.82076195     0.08300
C438        C  0.20512476  0.73377081  0.84377460    -0.13900
H439        H  0.22267141  0.72406959  0.88557707     0.12300
H440        H  0.17106124  0.65777925  0.84713848     0.12300
H441        H  0.16291781  0.68877442  0.80484697     0.12300
H442        H  0.21460765  0.75501691  0.84325520     0.10700
C443        C  0.20135335  0.47519564  0.98049916    -0.16900
C444        C  0.20103161  0.46005202  0.95608091    -0.32100
H445        H  0.20164387  0.46407580  0.00132968     0.12100
H446        H  0.20108020  0.47116239  0.93524203     0.12700
C447        C  0.83731642  0.73285681  0.20558850    -0.13900
C448        C  0.81477481  0.75031170  0.21533390     0.08300
C449        C  0.81687676  0.76237847  0.24282098    -0.13900
C450        C  0.84077816  0.75682532  0.26034746    -0.13900
C451        C  0.86332553  0.73939595  0.25065411     0.08300
C452        C  0.86145453  0.72763126  0.22299334    -0.13900
H453        H  0.83639478  0.72336438  0.18443605     0.12300
H454        H  0.79987563  0.77588835  0.25097107     0.12300
H455        H  0.84169205  0.76652305  0.28138463     0.12300
H456        H  0.87842990  0.71405025  0.21494202     0.12300
C457        C  0.73410487  0.73348788  0.11135579    -0.13900
C458        C  0.75304786  0.72432646  0.13335726     0.08300
C459        C  0.76624339  0.69726111  0.13132793    -0.13900
C460        C  0.76073466  0.67980936  0.10771848    -0.13900
C461        C  0.74226067  0.68924860  0.08545537     0.08300
C462        C  0.72893650  0.71621843  0.08755621    -0.13900
H463        H  0.72361506  0.75423749  0.11225788     0.12300
H464        H  0.78085052  0.68954332  0.14798655     0.12300
H465        H  0.77147152  0.65921435  0.10661021     0.12300
H466        H  0.71439268  0.72395847  0.07086555     0.12300
C467        C  0.68328677  0.83308013  0.18481862    -0.13900
C468        C  0.69371391  0.85689421  0.19978909     0.08300
C469        C  0.72178375  0.85601339  0.21099737    -0.13900
C470        C  0.73915672  0.83185064  0.20712876    -0.13900
C471        C  0.72896387  0.80832481  0.19151515     0.08300
C472        C  0.70079570  0.80914980  0.18052976    -0.13900
H473        H  0.66182492  0.83318503  0.17575200     0.12300
H474        H  0.73030025  0.87395916  0.22283235     0.12300
H475        H  0.76078418  0.83186318  0.21582540     0.12300
H476        H  0.69227345  0.79130444  0.16852950     0.12300
C477        C  0.46096789  0.97620394  0.19636210    -0.16900
C478        C  0.47969189  0.95434372  0.19893619    -0.32100
H479        H  0.46879423  0.99811946  0.19452120     0.12100
H480        H  0.47190460  0.93239911  0.20057484     0.12700
C481        C  0.18730585  0.25353607  0.78563502    -0.13900
C482        C  0.20196388  0.22735326  0.78226533     0.08300
C483        C  0.22047052  0.21768085  0.80445318    -0.13900
C484        C  0.22352327  0.23333838  0.82976916    -0.13900
C485        C  0.20853684  0.25925266  0.83327258     0.08300
C486        C  0.19073810  0.26942056  0.81076538    -0.13900
H487        H  0.17292584  0.26165280  0.76895973     0.12300
H488        H  0.23206568  0.19761403  0.80260932     0.12300
H489        H  0.23758684  0.22510695  0.84665600     0.12300
H490        H  0.17876155  0.28921672  0.81291933     0.12300
C491        C  0.25474011  0.14177772  0.73376892    -0.13900
C492        C  0.22648312  0.14371597  0.72309744     0.08300
C493        C  0.21479228  0.12006865  0.70875139    -0.13900
C494        C  0.23053637  0.09464542  0.70620447    -0.13900
C495        C  0.25852447  0.09242405  0.71749419     0.08300
C496        C  0.27070980  0.11647823  0.73073546    -0.13900
H497        H  0.26438534  0.15971455  0.74475925     0.12300
H498        H  0.19307323  0.12084759  0.70030690     0.12300
H499        H  0.22064746  0.07660748  0.69562228     0.12300
H500        H  0.29218215  0.11542133  0.73973803     0.12300
C501        C  0.13808669  0.18896986  0.67221416    -0.13900
C502        C  0.14156490  0.20261255  0.69883362     0.08300
C503        C  0.11908547  0.21982243  0.70911097    -0.13900
C504        C  0.09331099  0.22238558  0.69369542    -0.13900
C505        C  0.08961878  0.20819339  0.66744718     0.08300
C506        C  0.11246537  0.19192426  0.65657328    -0.13900
H507        H  0.15503960  0.17568167  0.66361730     0.12300
H508        H  0.12105051  0.23065882  0.72950880     0.12300
H509        H  0.07618430  0.23533896  0.70244199     0.12300
H510        H  0.11020578  0.18064360  0.63646600     0.12300
C511        C  0.81421513  0.21700639  0.20845073    -0.13900
C512        C  0.79051852  0.20337735  0.22151839     0.08300
C513        C  0.79312667  0.19301272  0.25009686    -0.13900
C514        C  0.81910883  0.19573678  0.26510730    -0.13900
C515        C  0.84314330  0.20832654  0.25160015     0.08300
C516        C  0.84030350  0.21922497  0.22323576    -0.13900
H517        H  0.81289687  0.22514355  0.18642068     0.12300
H518        H  0.77515228  0.18255570  0.26074341     0.12300
H519        H  0.82063605  0.18707291  0.28691443     0.12300
H520        H  0.85831745  0.22932736  0.21234215     0.12300
C521        C  0.74149233  0.25597125  0.13540416    -0.13900
C522        C  0.72891336  0.22865594  0.13857908     0.08300
C523        C  0.71262121  0.21775839  0.11566205    -0.13900
C524        C  0.71000807  0.23331892  0.08968016    -0.13900
C525        C  0.72318873  0.26029524  0.08628102     0.08300
C526        C  0.73844952  0.27174120  0.10959609    -0.13900
H527        H  0.75405527  0.26499366  0.15273178     0.12300
H528        H  0.70268870  0.19676303  0.11742525     0.12300
H529        H  0.69785832  0.22412147  0.07216410     0.12300
H530        H  0.74894368  0.29243025  0.10757100     0.12300
C531        C  0.67853804  0.14114033  0.18689153    -0.13900
C532        C  0.70594449  0.14403156  0.19939583     0.08300
C533        C  0.71749584  0.12076000  0.21533817    -0.13900
C534        C  0.70255283  0.09479648  0.21768162    -0.13900
C535        C  0.67551814  0.09163564  0.20454155     0.08300
C536        C  0.66336735  0.11527006  0.18965113    -0.13900
H537        H  0.66899891  0.15873362  0.17458040     0.12300
H538        H  0.73855057  0.12224474  0.22521007     0.12300
H539        H  0.71232072  0.07709750  0.22962847     0.12300
H540        H  0.64260121  0.11347057  0.17925116     0.12300
C541        C  0.25881543  0.79391659  0.20006588    -0.13900
C542        C  0.23109454  0.79189766  0.21193612     0.08300
C543        C  0.21974474  0.81567925  0.22628185    -0.13900
C544        C  0.23528645  0.84130580  0.22768573    -0.13900
C545        C  0.26268671  0.84359762  0.21514109     0.08300
C546        C  0.27454331  0.81942779  0.20185404    -0.13900
H547        H  0.26820810  0.77588583  0.18902592     0.12300
H548        H  0.19843899  0.81482428  0.23562116     0.12300
H549        H  0.22568188  0.85941268  0.23838814     0.12300
H550        H  0.29555266  0.82048440  0.19191556     0.12300
C551        C  0.12563424  0.71336151  0.22883898    -0.13900
C552        C  0.14700298  0.73248541  0.23806933     0.08300
C553        C  0.14259968  0.74755576  0.26374155    -0.13900
C554        C  0.11719706  0.74390598  0.27953651    -0.13900
C555        C  0.09552038  0.72550873  0.26970273     0.08300
C556        C  0.10010065  0.71010554  0.24435033    -0.13900
H557        H  0.12828377  0.70138008  0.20920071     0.12300
H558        H  0.15865224  0.76238680  0.27149616     0.12300
H559        H  0.11413812  0.75617825  0.29892570     0.12300
H560        H  0.08385925  0.69557226  0.23642350     0.12300
C561        C  0.22804552  0.70068878  0.10755878    -0.13900
C562        C  0.21309606  0.67474776  0.10439178     0.08300
C563        C  0.19590651  0.66447483  0.12721301    -0.13900
C564        C  0.19280233  0.68046138  0.15228491    -0.13900
C565        C  0.20721609  0.70680486  0.15521255     0.08300
C566        C  0.22533811  0.71643786  0.13279703    -0.13900
H567        H  0.24167312  0.70894340  0.09039672     0.12300
H568        H  0.18401709  0.64461407  0.12527618     0.12300
H569        H  0.17875941  0.67238399  0.16918975     0.12300
H570        H  0.23677056  0.73661166  0.13433638     0.12300
C571        C  0.17499998  0.23822277  0.11512295    -0.13900
C572        C  0.18641906  0.21024051  0.11634428     0.08300
C573        C  0.20274812  0.20062904  0.09294605    -0.13900
C574        C  0.20718587  0.21841404  0.06868051    -0.13900
C575        C  0.19575702  0.24640082  0.06739155     0.08300
C576        C  0.17979784  0.25617939  0.09101618    -0.13900
H577        H  0.16242259  0.24629965  0.13287466     0.12300
H578        H  0.21173747  0.17914751  0.09317341     0.12300
H579        H  0.21976676  0.21022240  0.05101621     0.12300
H580        H  0.17053685  0.27752109  0.09072338     0.12300
C581        C  0.20294369  0.10265616  0.19457897    -0.13900
C582        C  0.21247749  0.12540784  0.17663956     0.08300
C583        C  0.24008628  0.12378160  0.16451132    -0.13900
C584        C  0.25772074  0.09992753  0.17019562    -0.13900
C585        C  0.24796419  0.07699528  0.18778104     0.08300
C586        C  0.22039620  0.07866798  0.19992290    -0.13900
H587        H  0.18177738  0.10317073  0.20423068     0.12300
H588        H  0.24811638  0.14098359  0.15068232     0.12300
H589        H  0.27877147  0.09924327  0.16034609     0.12300
H590        H  0.21231250  0.06151644  0.21375937     0.12300
C591        C  0.12594756  0.17131338  0.22854918    -0.13900
C592        C  0.12672186  0.18228710  0.20008018     0.08300
C593        C  0.10268431  0.19727854  0.18919688    -0.13900
C594        C  0.07826990  0.20094208  0.20632336    -0.13900
C595        C  0.07756903  0.19013894  0.23486473     0.08300
C596        C  0.10173903  0.17541777  0.24583477    -0.13900
H597        H  0.14416399  0.15970798  0.23755882     0.12300
H598        H  0.10258069  0.20583196  0.16728364     0.12300
H599        H  0.06007348  0.21252692  0.19728358     0.12300
H600        H  0.10181079  0.16662463  0.26763866     0.12300
loop_ 
_geom_bond_atom_site_label_1 
_geom_bond_atom_site_label_2 
_geom_bond_distance 
_geom_bond_site_symmetry_2 
_ccdc_geom_bond_type 
C1            N2   1.360       .  A
C1            N6   1.359       .  A
C1          C582   1.484       .  S
N2            C3   1.361       .  A
C3            N4   1.360       .  A
C3          C572   1.483       .  S
N4            C5   1.359       .  A
C5            N6   1.358       .  A
C5          C592   1.481       .  S
C7            N8   1.360       .  A
C7           N12   1.359       .  A
C7          C552   1.483       .  S
N8            C9   1.360       .  A
C9           N10   1.359       .  A
C9          C542   1.481       .  S
N10          C11   1.358       .  A
C11          N12   1.358       .  A
C11         C565   1.482       .  S
C13          N14   1.358       .  A
C13          N18   1.358       .  A
C13         C522   1.479       .  S
N14          C15   1.359       .  A
C15          N16   1.361       .  A
C15         C532   1.482       .  S
N16          C17   1.360       .  A
C17          N18   1.358       .  A
C17         C512   1.480       .  S
C19          N20   1.360       .  A
C19          N24   1.359       .  A
C19         C492   1.483       .  S
N20          C21   1.361       .  A
C21          N22   1.359       .  A
C21         C482   1.485       .  S
N22          C23   1.359       .  A
C23          N24   1.359       .  A
C23         C502   1.483       .  S
N25          C29   1.345       .  A
N25          N26   1.320       .  A
N25         Cu33   2.070       .  S
N26          C27   1.345       .  A
N26         Cu32   2.075   1_545  S
C27          C28   1.388       .  A
C27          H30   1.081       .  S
C28         C585   1.484       .  S
C28          C29   1.387       .  A
C29          H31   1.082       .  S
Cu32         N35   2.075       .  S
Cu33         N43   2.070   1_545  S
Cu34         N36   2.081       .  S
Cu34         N42   2.081       .  S
N35          C39   1.344       .  A
N35          N36   1.322       .  A
N36          C37   1.346       .  A
C37          C38   1.388       .  A
C37          H40   1.081       .  S
C38         C545   1.483       .  S
C38          C39   1.385       .  A
C39          H41   1.082       .  S
N42          C46   1.347       .  A
N42          N43   1.322       .  A
N43          C44   1.343       .  A
C44          C45   1.380       .  A
C44          H47   1.082   1_565  S
C45          C46   1.388       .  A
C45         C477   1.477       .  S
C46          H48   1.081       .  S
N49          C53   1.343       .  A
N49          N50   1.320       .  A
N49         Cu57   2.066       .  S
N50          C51   1.345       .  A
N50         Cu56   2.072       .  S
C51          C52   1.386       .  A
C51          H54   1.082       .  S
C52         C468   1.479       .  S
C52          C53   1.385       .  A
C53          H55   1.082       .  S
Cu56         N59   2.072   1_565  S
Cu57         N67   2.066       .  S
Cu58         N60   2.084       .  S
Cu58         N66   2.084   1_545  S
N59          C63   1.343       .  A
N59          N60   1.322       .  A
N60          C61   1.348       .  A
C61          C62   1.388       .  A
C61          H64   1.082       .  S
C62         C535   1.482       .  S
C62          C63   1.384       .  A
C63          H65   1.082       .  S
N66          C70   1.346       .  A
N66          N67   1.322       .  A
N67          C68   1.344       .  A
C68          C69   1.380       .  A
C68          H71   1.082       .  S
C69          C70   1.389       .  A
C69         C478   1.478       .  S
C70          H72   1.081   1_565  S
C73          N74   1.358       .  A
C73          N78   1.359       .  A
C73         C458   1.480       .  S
N74          C75   1.358       .  A
C75          N76   1.359       .  A
C75         C471   1.480       .  S
N76          C77   1.360       .  A
C77          N78   1.359       .  A
C77         C448   1.480       .  S
N79          C83   1.347       .  A
N79          N80   1.321   1_554  A
N79         Cu87   2.080   1_554  S
N80          C81   1.344   1_556  A
N80         Cu86   2.075       .  S
C81          C82   1.387       .  A
C81          H84   1.082       .  S
C82         C575   1.486       .  S
C82          C83   1.389       .  A
C83          H85   1.081       .  S
Cu86         N89   2.075       .  S
Cu87         N97   2.080       .  S
Cu88         N90   2.077       .  S
Cu88         N96   2.077       .  S
N89          C93   1.345       .  A
N89          N90   1.322       .  A
N90          C91   1.346       .  A
C91          C92   1.387       .  A
C91          H94   1.082       .  S
C92         C485   1.482       .  S
C92          C93   1.385       .  A
C93          H95   1.082       .  S
N96         C100   1.345       .  A
N96          N97   1.323       .  A
N97          C98   1.346       .  A
C98          C99   1.387       .  A
C98         H101   1.081   1_556  S
C99         C100   1.382       .  A
C99         C444   1.479       .  S
C100        H102   1.083       .  S
N103        C107   1.345       .  A
N103        N104   1.321       .  A
N103       Cu111   2.076       .  S
N104        C105   1.344       .  A
N104       Cu110   2.069       .  S
C105        C106   1.385       .  A
C105        H108   1.081       .  S
C106        C434   1.481       .  S
C106        C107   1.387       .  A
C107        H109   1.082       .  S
Cu110       N113   2.068   1_556  S
Cu111       N121   2.077       .  S
Cu112       N114   2.075       .  S
Cu112       N120   2.075   1_554  S
N113        C117   1.343       .  A
N113        N114   1.321       .  A
N114        C115   1.346       .  A
C115        C116   1.386       .  A
C115        H118   1.082       .  S
C116        C562   1.478       .  S
C116        C117   1.384       .  A
C117        H119   1.082       .  S
N120        C124   1.344   1_556  A
N120        N121   1.322       .  A
N121        C122   1.346       .  A
C122        C123   1.387       .  A
C122        H125   1.081       .  S
C123        C124   1.382   1_556  A
C123        C443   1.479       .  S
C124        H126   1.083       .  S
C127        N128   1.359       .  A
C127        N132   1.357       .  A
C127        C427   1.479       .  S
N128        C129   1.360       .  A
C129        N130   1.360       .  A
C129        C437   1.480       .  S
N130        C131   1.359       .  A
C131        N132   1.358       .  A
C131        C414   1.480       .  S
N133        C137   1.345       .  A
N133        N134   1.321       .  A
N133       Cu141   2.075       .  S
N134        C135   1.345       .  A
N134       Cu140   2.073   1_455  S
C135        C136   1.386       .  A
C135        H138   1.082       .  S
C136        C595   1.483       .  S
C136        C137   1.387       .  A
C137        H139   1.082       .  S
Cu140       N143   2.073       .  S
Cu141       N151   2.075   1_455  S
Cu142       N144   2.081       .  S
Cu142       N150   2.081       .  S
N143        C147   1.344       .  A
N143        N144   1.322       .  A
N144        C145   1.347       .  A
C145        C146   1.387       .  A
C145        H148   1.082       .  S
C146        C515   1.482       .  S
C146        C147   1.385       .  A
C147        H149   1.082       .  S
N150        C154   1.347       .  A
N150        N151   1.323       .  A
N151        C152   1.345       .  A
C152        C153   1.382       .  A
C152        H155   1.082   1_655  S
C153        C154   1.388       .  A
C153        C409   1.480       .  S
C154        H156   1.081       .  S
N157        C161   1.344       .  A
N157        N158   1.321       .  A
N157       Cu165   2.069       .  S
N158        C159   1.345       .  A
N158       Cu164   2.071       .  S
C159        C160   1.385       .  A
C159        H162   1.082       .  S
C160        C400   1.478       .  S
C160        C161   1.385       .  A
C161        H163   1.082       .  S
Cu164       N167   2.072   1_655  S
Cu165       N175   2.069       .  S
Cu166       N168   2.081       .  S
Cu166       N174   2.081   1_455  S
N167        C171   1.344       .  A
N167        N168   1.322       .  A
N168        C169   1.346       .  A
C169        C170   1.387       .  A
C169        H172   1.082       .  S
C170        C505   1.480       .  S
C170        C171   1.384       .  A
C171        H173   1.082       .  S
N174        C178   1.347       .  A
N174        N175   1.322       .  A
N175        C176   1.344       .  A
C176        C177   1.381       .  A
C176        H179   1.082       .  S
C177        C178   1.388       .  A
C177        C410   1.479       .  S
C178        H180   1.081   1_655  S
C181        N182   1.360       .  A
C181        N186   1.358       .  A
C181        C403   1.480       .  S
N182        C183   1.360       .  A
C183        N184   1.359       .  A
C183        C380   1.482       .  S
N184        C185   1.358       .  A
C185        N186   1.357       .  A
C185        C390   1.480       .  S
N187        C191   1.345       .  A
N187        N188   1.322       .  A
N187       Cu195   2.071       .  S
N188        C189   1.344       .  A
N188       Cu194   2.074       .  S
C189        C190   1.386       .  A
C189        H192   1.082       .  S
C190        C383   1.479       .  S
C190        C191   1.385       .  A
C191        H193   1.082       .  S
Cu194       N197   2.074   1_556  S
Cu195       N205   2.071       .  S
Cu196       N198   2.068       .  S
Cu196       N204   2.068   1_554  S
N197        C201   1.344       .  A
N197        N198   1.321       .  A
N198        C199   1.344       .  A
C199        C200   1.385       .  A
C199        H202   1.082       .  S
C200        C525   1.478       .  S
C200        C201   1.385       .  A
C201        H203   1.082       .  S
N204        C208   1.344       .  A
N204        N205   1.322       .  A
N205        C206   1.344       .  A
C206        C207   1.381       .  A
C206        H209   1.082       .  S
C207        C208   1.385       .  A
C207        C375   1.475       .  S
C208        H210   1.081   1_556  S
N211        C215   1.345       .  A
N211        N212   1.321       .  A
N211       Cu219   2.071       .  S
N212        C213   1.343       .  A
N212       Cu218   2.069   1_554  S
C213        C214   1.385       .  A
C213        H216   1.082       .  S
C214        C461   1.479       .  S
C214        C215   1.386       .  A
C215        H217   1.082       .  S
Cu218       N221   2.069       .  S
Cu219       N229   2.072   1_554  S
Cu220       N222   2.069       .  S
Cu220       N228   2.070       .  S
N221        C225   1.343       .  A
N221        N222   1.321       .  A
N222        C223   1.345       .  A
C223        C224   1.385       .  A
C223        H226   1.082       .  S
C224        C366   1.478       .  S
C224        C225   1.385       .  A
C225        H227   1.082       .  S
N228        C232   1.344       .  A
N228        N229   1.322       .  A
N229        C230   1.344   1_556  A
C230        C231   1.381   1_554  A
C230        H233   1.082       .  S
C231        C232   1.385       .  A
C231        C376   1.475       .  S
C232        H234   1.081       .  S
N235        C239   1.343       .  A
N235        N236   1.321       .  A
N235       Cu243   2.071       .  S
N236        C237   1.346       .  A
N236       Cu242   2.071       .  S
C237        C238   1.387       .  A
C237        H240   1.082       .  S
C238        C451   1.481       .  S
C238        C239   1.386       .  A
C239        H241   1.082       .  S
Cu242       N245   2.071   1_655  S
Cu243       N253   2.072       .  S
Cu244       N246   2.086       .  S
Cu244       N252   2.086   1_455  S
N245        C249   1.343       .  A
N245        N246   1.323       .  A
N246        C247   1.347       .  A
C247        C248   1.387       .  A
C247        H250   1.082       .  S
C248        C555   1.479       .  S
C248        C249   1.383       .  A
C249        H251   1.082       .  S
N252        C256   1.348       .  A
N252        N253   1.322       .  A
N253        C254   1.344       .  A
C254        C255   1.381       .  A
C254        H257   1.082       .  S
C255        C256   1.389       .  A
C255        C361   1.482       .  S
C256        H258   1.081   1_655  S
N259        C263   1.345       .  A
N259        N260   1.320       .  A
N259       Cu267   2.074       .  S
N260        C261   1.344       .  A
N260       Cu266   2.065   1_455  S
C261        C262   1.386       .  A
C261        H264   1.081       .  S
C262        C424   1.482       .  S
C262        C263   1.388       .  A
C263        H265   1.082       .  S
Cu266       N269   2.065       .  S
Cu267       N277   2.075   1_455  S
Cu268       N270   2.091       .  S
Cu268       N276   2.092       .  S
N269        C273   1.342       .  A
N269        N270   1.323       .  A
N270        C271   1.349       .  A
C271        C272   1.389       .  A
C271        H274   1.082       .  S
C272        C352   1.481       .  S
C272        C273   1.382       .  A
C273        H275   1.082       .  S
N276        C280   1.349       .  A
N276        N277   1.323       .  A
N277        C278   1.344       .  A
C278        C279   1.381       .  A
C278        H281   1.082   1_655  S
C279        C280   1.389       .  A
C279        C362   1.481       .  S
C280        H282   1.082       .  S
N283        C287   1.344       .  A
N283        N284   1.320       .  A
N283       Cu291   2.067       .  S
N284        C285   1.344       .  A
N284       Cu290   2.073       .  S
C285        C286   1.387       .  A
C285        H288   1.082       .  S
C286        C417   1.482       .  S
C286        C287   1.386       .  A
C287        H289   1.082       .  S
Cu290       N293   2.073   1_565  S
Cu291       N301   2.067       .  S
Cu292       N294   2.088       .  S
Cu292       N300   2.088   1_545  S
N293        C297   1.344       .  A
N293        N294   1.322       .  A
N294        C295   1.348       .  A
C295        C296   1.388       .  A
C295        H298   1.082       .  S
C296        C495   1.484       .  S
C296        C297   1.385       .  A
C297        H299   1.082       .  S
N300        C304   1.348       .  A
N300        N301   1.323       .  A
N301        C302   1.343       .  A
C302        C303   1.380       .  A
C302        H305   1.082       .  S
C303        C304   1.389       .  A
C303        C348   1.479       .  S
C304        H306   1.081   1_565  S
N307        C311   1.343       .  A
N307        N308   1.320       .  A
N307       Cu315   2.068       .  S
N308        C309   1.345       .  A
N308       Cu314   2.067   1_545  S
C309        C310   1.386       .  A
C309        H312   1.082       .  S
C310        C393   1.478       .  S
C310        C311   1.385       .  A
C311        H313   1.082       .  S
Cu314       N317   2.067       .  S
Cu315       N325   2.068   1_545  S
Cu316       N318   2.085       .  S
Cu316       N324   2.085       .  S
N317        C321   1.342       .  A
N317        N318   1.323       .  A
N318        C319   1.347       .  A
C319        C320   1.387       .  A
C319        H322   1.082       .  S
C320        C338   1.478       .  S
C320        C321   1.382       .  A
C321        H323   1.082       .  S
N324        C328   1.348       .  A
N324        N325   1.322       .  A
N325        C326   1.343   1_565  A
C326        C327   1.380   1_545  A
C326        H329   1.082       .  S
C327        C328   1.389       .  A
C327        C347   1.479       .  S
C328        H330   1.081       .  S
C331        N332   1.357       .  A
C331        N336   1.360       .  A
C331        C369   1.481       .  S
N332        C333   1.357       .  A
C333        N334   1.360       .  A
C333        C341   1.482       .  S
N334        C335   1.360       .  A
C335        N336   1.361       .  A
C335        C355   1.483       .  S
C337        C338   1.403       .  A
C337        C342   1.398       .  A
C337        H343   1.083       .  S
C338        C339   1.404       .  A
C339        C340   1.397       .  A
C339        H344   1.083       .  S
C340        C341   1.405       .  A
C340        H345   1.083       .  S
C341        C342   1.408       .  A
C342        H346   1.083       .  S
C347        C348   1.342       .  D
C347        H349   1.085   1_565  S
C348        H350   1.085       .  S
C351        C352   1.405       .  A
C351        C356   1.397       .  A
C351        H357   1.083       .  S
C352        C353   1.404       .  A
C353        C354   1.401       .  A
C353        H358   1.083       .  S
C354        C355   1.407       .  A
C354        H359   1.083       .  S
C355        C356   1.405       .  A
C356        H360   1.083       .  S
C361        C362   1.344       .  D
C361        H363   1.085       .  S
C362        H364   1.085   1_655  S
C365        C366   1.405       .  A
C365        C370   1.399       .  A
C365        H371   1.082       .  S
C366        C367   1.403       .  A
C367        C368   1.396       .  A
C367        H372   1.083       .  S
C368        C369   1.406       .  A
C368        H373   1.083       .  S
C369        C370   1.406       .  A
C370        H374   1.083       .  S
C375        C376   1.343       .  D
C375        H377   1.085       .  S
C376        H378   1.085   1_556  S
C379        C380   1.406       .  A
C379        C384   1.400       .  A
C379        H385   1.083       .  S
C380        C381   1.406       .  A
C381        C382   1.396       .  A
C381        H386   1.083       .  S
C382        C383   1.403       .  A
C382        H387   1.083       .  S
C383        C384   1.405       .  A
C384        H388   1.082       .  S
C389        C390   1.405       .  A
C389        C394   1.397       .  A
C389        H395   1.083       .  S
C390        C391   1.407       .  A
C391        C392   1.398       .  A
C391        H396   1.083       .  S
C392        C393   1.404       .  A
C392        H397   1.083       .  S
C393        C394   1.404       .  A
C394        H398   1.082       .  S
C399        C400   1.405       .  A
C399        C404   1.398       .  A
C399        H405   1.083       .  S
C400        C401   1.404       .  A
C401        C402   1.396       .  A
C401        H406   1.082       .  S
C402        C403   1.406       .  A
C402        H407   1.083       .  S
C403        C404   1.406       .  A
C404        H408   1.083       .  S
C409        C410   1.343       .  D
C409        H411   1.085   1_655  S
C410        H412   1.085       .  S
C413        C414   1.405       .  A
C413        C418   1.399       .  A
C413        H419   1.083       .  S
C414        C415   1.405       .  A
C415        C416   1.396       .  A
C415        H420   1.083       .  S
C416        C417   1.404       .  A
C416        H421   1.082       .  S
C417        C418   1.406       .  A
C418        H422   1.082       .  S
C423        C424   1.405       .  A
C423        C428   1.397       .  A
C423        H429   1.082       .  S
C424        C425   1.406       .  A
C425        C426   1.399       .  A
C425        H430   1.082       .  S
C426        C427   1.405       .  A
C426        H431   1.083       .  S
C427        C428   1.405       .  A
C428        H432   1.083       .  S
C433        C434   1.405       .  A
C433        C438   1.398       .  A
C433        H439   1.082       .  S
C434        C435   1.405       .  A
C435        C436   1.398       .  A
C435        H440   1.082       .  S
C436        C437   1.405       .  A
C436        H441   1.083       .  S
C437        C438   1.405       .  A
C438        H442   1.083       .  S
C443        C444   1.344       .  D
C443        H445   1.086   1_556  S
C444        H446   1.086       .  S
C447        C448   1.406       .  A
C447        C452   1.399       .  A
C447        H453   1.083       .  S
C448        C449   1.404       .  A
C449        C450   1.396       .  A
C449        H454   1.083       .  S
C450        C451   1.405       .  A
C450        H455   1.082       .  S
C451        C452   1.405       .  A
C452        H456   1.082       .  S
C457        C458   1.405       .  A
C457        C462   1.397       .  A
C457        H463   1.083       .  S
C458        C459   1.405       .  A
C459        C460   1.398       .  A
C459        H464   1.083       .  S
C460        C461   1.405       .  A
C460        H465   1.082       .  S
C461        C462   1.404       .  A
C462        H466   1.082       .  S
C467        C468   1.405       .  A
C467        C472   1.397       .  A
C467        H473   1.082       .  S
C468        C469   1.405       .  A
C469        C470   1.399       .  A
C469        H474   1.082       .  S
C470        C471   1.406       .  A
C470        H475   1.083       .  S
C471        C472   1.405       .  A
C472        H476   1.083       .  S
C477        C478   1.342       .  D
C477        H479   1.085       .  S
C478        H480   1.085       .  S
C481        C482   1.407       .  A
C481        C486   1.399       .  A
C481        H487   1.083       .  S
C482        C483   1.406       .  A
C483        C484   1.399       .  A
C483        H488   1.083       .  S
C484        C485   1.405       .  A
C484        H489   1.083       .  S
C485        C486   1.404       .  A
C486        H490   1.082       .  S
C491        C492   1.406       .  A
C491        C496   1.401       .  A
C491        H497   1.083       .  S
C492        C493   1.405       .  A
C493        C494   1.398       .  A
C493        H498   1.083       .  S
C494        C495   1.405       .  A
C494        H499   1.082       .  S
C495        C496   1.406       .  A
C496        H500   1.082       .  S
C501        C502   1.406       .  A
C501        C506   1.399       .  A
C501        H507   1.083       .  S
C502        C503   1.406       .  A
C503        C504   1.398       .  A
C503        H508   1.083       .  S
C504        C505   1.405       .  A
C504        H509   1.083       .  S
C505        C506   1.404       .  A
C506        H510   1.083       .  S
C511        C512   1.405       .  A
C511        C516   1.397       .  A
C511        H517   1.083       .  S
C512        C513   1.405       .  A
C513        C514   1.400       .  A
C513        H518   1.083       .  S
C514        C515   1.406       .  A
C514        H519   1.082       .  S
C515        C516   1.405       .  A
C516        H520   1.083       .  S
C521        C522   1.405       .  A
C521        C526   1.397       .  A
C521        H527   1.083       .  S
C522        C523   1.406       .  A
C523        C524   1.397       .  A
C523        H528   1.083       .  S
C524        C525   1.404       .  A
C524        H529   1.083       .  S
C525        C526   1.405       .  A
C526        H530   1.083       .  S
C531        C532   1.407       .  A
C531        C536   1.400       .  A
C531        H537   1.083       .  S
C532        C533   1.405       .  A
C533        C534   1.397       .  A
C533        H538   1.083       .  S
C534        C535   1.405       .  A
C534        H539   1.082       .  S
C535        C536   1.405       .  A
C536        H540   1.083       .  S
C541        C542   1.406       .  A
C541        C546   1.399       .  A
C541        H547   1.083       .  S
C542        C543   1.405       .  A
C543        C544   1.398       .  A
C543        H548   1.083       .  S
C544        C545   1.406       .  A
C544        H549   1.082       .  S
C545        C546   1.405       .  A
C546        H550   1.082       .  S
C551        C552   1.406       .  A
C551        C556   1.397       .  A
C551        H557   1.083       .  S
C552        C553   1.407       .  A
C553        C554   1.400       .  A
C553        H558   1.083       .  S
C554        C555   1.404       .  A
C554        H559   1.083       .  S
C555        C556   1.404       .  A
C556        H560   1.083       .  S
C561        C562   1.404       .  A
C561        C566   1.397       .  A
C561        H567   1.083       .  S
C562        C563   1.404       .  A
C563        C564   1.398       .  A
C563        H568   1.083       .  S
C564        C565   1.407       .  A
C564        H569   1.083       .  S
C565        C566   1.406       .  A
C566        H570   1.083       .  S
C571        C572   1.406       .  A
C571        C576   1.400       .  A
C571        H577   1.083       .  S
C572        C573   1.405       .  A
C573        C574   1.399       .  A
C573        H578   1.083       .  S
C574        C575   1.406       .  A
C574        H579   1.082       .  S
C575        C576   1.406       .  A
C576        H580   1.082       .  S
C581        C582   1.406       .  A
C581        C586   1.398       .  A
C581        H587   1.083       .  S
C582        C583   1.406       .  A
C583        C584   1.400       .  A
C583        H588   1.083       .  S
C584        C585   1.406       .  A
C584        H589   1.082       .  S
C585        C586   1.404       .  A
C586        H590   1.082       .  S
C591        C592   1.405       .  A
C591        C596   1.398       .  A
C591        H597   1.083       .  S
C592        C593   1.405       .  A
C593        C594   1.399       .  A
C593        H598   1.083       .  S
C594        C595   1.406       .  A
C594        H599   1.082       .  S
C595        C596   1.405       .  A
C596        H600   1.082       .  S
