geometry optimzed in LAMMPS
_audit_creation_date              2020-12-01 
_audit_creation_method            'lammps2cif' 
_symmetry_space_group_name_H-M    'P1' 
_symmetry_Int_Tables_number       1 
_symmetry_cell_setting            triclinic 
loop_ 
_symmetry_equiv_pos_as_xyz 
  x,y,z 
_cell_length_a                    38.95894809 
_cell_length_b                    38.925473915175274 
_cell_length_c                    39.09937275839909 
_cell_angle_alpha                 90.14429939027764 
_cell_angle_beta                  90.07207212948525 
_cell_angle_gamma                 89.97423662708528 
loop_ 
_atom_site_label 
_atom_site_type_symbol 
_atom_site_fract_x 
_atom_site_fract_y 
_atom_site_fract_z 
_atom_site_charge 
C1          C  0.81488216  0.34683025  0.47128019     0.80100
N2          N  0.80291046  0.33852010  0.50260919    -0.78200
C3          C  0.81877222  0.34916289  0.53137750     0.82500
N4          N  0.84748254  0.36867055  0.52907730    -0.78200
C5          C  0.85988109  0.37788818  0.49782342     0.82600
N6          N  0.84358252  0.36682154  0.46876478    -0.79900
C7          C  0.41457626  0.82166725  0.40534252     0.80100
N8          N  0.41395200  0.84780716  0.42864738    -0.78200
C9          C  0.44223163  0.86850362  0.43268723     0.82500
N10         N  0.47059813  0.86343785  0.41238936    -0.78200
C11         C  0.47027288  0.83817264  0.38807777     0.82600
N12         N  0.44256763  0.81775238  0.38571273    -0.79900
C13         C  0.33166859  0.47046206  0.88299634     0.80100
N14         N  0.35539726  0.47377743  0.90852294    -0.78200
C15         C  0.37071501  0.44511680  0.92181105     0.82500
N16         N  0.36214656  0.41345392  0.90933603    -0.78200
C17         C  0.33898109  0.41050908  0.88351657     0.82600
N18         N  0.32385771  0.43889535  0.87085907    -0.79900
C19         C  0.05365939  0.33205167  0.97780710     0.80100
N20         N  0.02918315  0.35707591  0.97710851    -0.78200
C21         C  0.01635938  0.37019245  0.00696691     0.82500
N22         N  0.02809360  0.35788144  0.03754637    -0.78200
C23         C  0.05228975  0.33263126  0.03802235     0.82600
N24         N  0.06474701  0.32015756  0.00829704    -0.79900
C25         C  0.33060144  0.97382993  0.10616539     0.80100
N26         N  0.35413902  0.97515322  0.08035429    -0.78200
C27         C  0.36624394  0.94533344  0.06605245     0.82500
N28         N  0.35431145  0.91444266  0.07759183    -0.78200
C29         C  0.33044740  0.91344045  0.10297105     0.82600
N30         N  0.31914750  0.94300316  0.11701735    -0.79900
C31         C  0.82667256  0.55780506  0.46412014     0.80100
N32         N  0.85102711  0.53259163  0.46379092    -0.78200
C33         C  0.86362126  0.51991806  0.49389614     0.82500
N34         N  0.85122523  0.53233509  0.52420667    -0.78200
C35         C  0.82699217  0.55754247  0.52437481     0.82600
N36         N  0.81527504  0.57017619  0.49440850    -0.79900
C37         C  0.05359242  0.55371619  0.96909430     0.80100
N38         N  0.02943447  0.52861673  0.97049377    -0.78200
C39         C  0.01745921  0.51764868  0.00134789     0.82500
N40         N  0.02955070  0.53232991  0.03079247    -0.78200
C41         C  0.05355652  0.55775357  0.02928585     0.82600
N42         N  0.06534999  0.56788469  0.99839926    -0.79900
O43         O  0.91055783  0.47910781  0.97486651    -0.71900
O44         O  0.97794630  0.40814562  0.97786056    -0.72100
O45         O  0.90846553  0.40979565  0.97757198    -0.72000
O46         O  0.97939654  0.47738064  0.97526003    -0.72000
O47         O  0.97925447  0.47991784  0.03076769    -0.72000
O48         O  0.90865973  0.41218055  0.03307076    -0.72000
O49         O  0.97803415  0.41054161  0.03335602    -0.71900
O50         O  0.91022292  0.48148922  0.03037474    -0.72100
V51         V  0.94408795  0.44359097  0.97749156     1.35200
V52         V  0.94403011  0.44591039  0.03081368     1.35200
C53         C  0.89924930  0.49272207  0.00202636     0.77300
C54         C  0.98969905  0.39737977  0.00606741     0.77400
C55         C  0.89636349  0.39956216  0.00580420     0.77300
C56         C  0.99106824  0.49047392  0.00256932     0.77200
C57         C  0.55349135  0.97911246  0.09733464     0.80100
N58         N  0.56845731  0.94930139  0.10656398    -0.78200
C59         C  0.55759180  0.91897927  0.09380661     0.82500
N60         N  0.53072720  0.91825269  0.07142810    -0.78200
C61         C  0.51535366  0.94829977  0.06161304     0.82600
N62         N  0.52683292  0.97877793  0.07476995    -0.79900
O63         O  0.47479437  0.91995620  0.02510886    -0.71900
O64         O  0.40396133  0.91924649  0.95767555    -0.72100
O65         O  0.47346180  0.92062735  0.95630722    -0.72000
O66         O  0.40516651  0.91870362  0.02655922    -0.72000
O67         O  0.40418862  0.97446557  0.02751844    -0.72000
O68         O  0.47175153  0.97638109  0.95682640    -0.72000
O69         O  0.40207616  0.97499817  0.95863128    -0.71900
O70         O  0.47373598  0.97572687  0.02563112    -0.72100
V71         V  0.43925518  0.92073212  0.99142482     1.35200
V72         V  0.43797024  0.97429913  0.99210115     1.35200
C73         C  0.48671616  0.94796981  0.03654770     0.77300
C74         C  0.39064649  0.94686888  0.94693371     0.77400
C75         C  0.48470612  0.94894509  0.94504269     0.77300
C76         C  0.39291190  0.94623768  0.03892578     0.77200
C77         C  0.82951560  0.33569156  0.98026656     0.80100
N78         N  0.81927928  0.32473825  0.01135857    -0.78200
C79         C  0.83307705  0.33752280  0.04028051     0.82500
N80         N  0.85793772  0.36189533  0.03844580    -0.78200
C81         C  0.86875440  0.37345203  0.00732829     0.82600
N82         N  0.85441885  0.36028600  0.97808212    -0.79900
C83         C  0.67212288  0.68715137  0.26113519     0.45300
H84         H  0.65363005  0.67149302  0.27602279    -0.03700
C85         C  0.71521210  0.72416317  0.22594347     0.45400
H86         H  0.73333589  0.74032278  0.21126515    -0.03700
C87         C  0.65920073  0.72390523  0.25354970    -0.17400
C88         C  0.70752392  0.69135097  0.27841404    -0.17100
C89         C  0.68020761  0.67242529  0.22559779    -0.17500
C90         C  0.68117186  0.74274691  0.23336634    -0.17500
C91         C  0.72866535  0.71355731  0.26121232    -0.17100
C92         C  0.70545296  0.68998900  0.20841298    -0.17400
C93         C  0.54820271  0.42254526  0.11077973     0.80100
N94         N  0.56079967  0.45268707  0.12224296    -0.78200
C95         C  0.55001901  0.48291974  0.10933757     0.82500
N96         N  0.52570390  0.48324815  0.08425969    -0.78200
C97         C  0.51287824  0.45289711  0.07206833     0.82600
N98         N  0.52444998  0.42253095  0.08526018    -0.79900
C99         C  0.70202890  0.17928705  0.23534718     0.45300
H100        H  0.71967358  0.16258605  0.22052523    -0.03700
C101        C  0.66113880  0.21906784  0.27015388     0.45400
H102        H  0.64398096  0.23640231  0.28477529    -0.03700
C103        C  0.69858371  0.21530683  0.22024366    -0.17400
C104        C  0.66453662  0.16573397  0.23826113    -0.17100
C105        C  0.71440514  0.18630315  0.27229638    -0.17500
C106        C  0.67367070  0.23461928  0.23581252    -0.17500
C107        C  0.64487390  0.18438088  0.26080178    -0.17100
C108        C  0.69389144  0.20921519  0.28990834    -0.17400
C109        C  0.40939353  0.05532780  0.40125058     0.80100
N110        N  0.43899333  0.06671795  0.38740643    -0.78200
C111        C  0.46952362  0.05390308  0.39762985     0.82500
N112        N  0.47055969  0.02899575  0.42201751    -0.78200
C113        C  0.44071453  0.01700937  0.43590184     0.82600
N114        N  0.41009861  0.03033845  0.42542801    -0.79900
C115        C  0.95939374  0.05510587  0.61255152     0.80100
N116        N  0.92788895  0.06134965  0.62557253    -0.78200
C117        C  0.89961329  0.04609004  0.61274506     0.82500
N118        N  0.90256792  0.02403292  0.58594139    -0.78200
C119        C  0.93418884  0.01678718  0.57270127     0.82600
N120        N  0.96267460  0.03245209  0.58604984    -0.79900
O121        O  0.91602440  0.91514270  0.45726775    -0.71900
O122        O  0.91036206  0.97983522  0.53026200    -0.72100
O123        O  0.91212451  0.98433944  0.46119310    -0.72000
O124        O  0.91460029  0.91093428  0.52622772    -0.72000
O125        O  0.97023812  0.91420895  0.52749242    -0.72000
O126        O  0.96775362  0.98731369  0.46306701    -0.72000
O127        O  0.96598221  0.98318916  0.53209599    -0.71900
O128        O  0.97166335  0.91836496  0.45874256    -0.72100
V129        V  0.91435337  0.94766660  0.49375967     1.35200
V130        V  0.96779835  0.95074822  0.49531639     1.35200
C131        C  0.94478266  0.90556046  0.44566539     0.77300
C132        C  0.93708987  0.99233754  0.54383011     0.77400
C133        C  0.93969350  0.99804461  0.45075378     0.77300
C134        C  0.94295918  0.90016414  0.53797435     0.77200
C135        C  0.04838955  0.34142349  0.53507125     0.80100
N136        N  0.06207604  0.32630947  0.50721012    -0.78200
C137        C  0.05111120  0.33401371  0.47525987     0.82500
N138        N  0.02523870  0.35757259  0.47120020    -0.78200
C139        C  0.01101097  0.37304541  0.49944908     0.82600
N140        N  0.02286330  0.36477990  0.53125001    -0.79900
C141        C  0.32798678  0.91356922  0.88358954     0.80100
N142        N  0.35361082  0.91502700  0.90711785    -0.78200
C143        C  0.36240765  0.94577430  0.92155550     0.82500
N144        N  0.34476582  0.97490798  0.91269664    -0.78200
C145        C  0.31840967  0.97291409  0.88968790     0.82600
N146        N  0.31067563  0.94232009  0.87541119    -0.79900
C147        C  0.16446593  0.17602187  0.76539464     0.45300
H148        H  0.14672662  0.15965149  0.78030354    -0.03700
C149        C  0.20754565  0.21433421  0.73191233     0.45400
H150        H  0.22623525  0.23041969  0.71779255    -0.03700
C151        C  0.19889272  0.15797911  0.75811316    -0.17400
C152        C  0.15129969  0.18662455  0.72962029    -0.17100
C153        C  0.17378009  0.21006681  0.78388449    -0.17500
C154        C  0.22084451  0.17751482  0.73863044    -0.17500
C155        C  0.17210562  0.21058162  0.71411654    -0.17100
C156        C  0.19925135  0.22810848  0.76767466    -0.17400
C157        C  0.47266260  0.05104703  0.61912904     0.80100
N158        N  0.44268636  0.06359102  0.63097960    -0.78200
C159        C  0.41234573  0.05183347  0.61912315     0.82500
N160        N  0.41183962  0.02687964  0.59451969    -0.78200
C161        C  0.44204955  0.01389676  0.58203807     0.82600
N162        N  0.47252894  0.02630294  0.59439134    -0.79900
C163        C  0.67239778  0.22015126  0.73228380     0.45300
H164        H  0.65491857  0.23596104  0.71627609    -0.03700
C165        C  0.71321219  0.18327682  0.76987286     0.45400
H166        H  0.73053965  0.16754297  0.78611438    -0.03700
C167        C  0.70750975  0.21293947  0.71532679    -0.17400
C168        C  0.68080220  0.23662751  0.76728172    -0.17100
C169        C  0.65773023  0.18443233  0.74069341    -0.17500
C170        C  0.72855324  0.19181931  0.73435562    -0.17500
C171        C  0.70412137  0.21829053  0.78608788    -0.17100
C172        C  0.67836071  0.16576654  0.76220805    -0.17400
C173        C  0.55183257  0.42759394  0.88493393     0.80100
N174        N  0.56281673  0.45853760  0.87385790    -0.78200
C175        C  0.55056388  0.48790747  0.88770153     0.82500
N176        N  0.52655566  0.48654076  0.91289304    -0.78200
C177        C  0.51489364  0.45550280  0.92407187     0.82600
N178        N  0.52768848  0.42600035  0.91004003    -0.79900
C179        C  0.67949263  0.67875008  0.73453889     0.45300
H180        H  0.66201482  0.66094609  0.72078651    -0.03700
C181        C  0.71998243  0.72075406  0.76781617     0.45400
H182        H  0.73705625  0.73866043  0.78200368    -0.03700
C183        C  0.66297926  0.71355483  0.74326061    -0.17400
C184        C  0.69202507  0.66480984  0.76898976    -0.17100
C185        C  0.71260894  0.68745743  0.71516357    -0.17500
C186        C  0.68340167  0.73446071  0.76279448    -0.17500
C187        C  0.71507900  0.68581208  0.78531095    -0.17100
C188        C  0.73217543  0.71195911  0.73140309    -0.17400
C189        C  0.47434223  0.82708128  0.61070615     0.80100
N190        N  0.47391969  0.85314902  0.58765995    -0.78200
C191        C  0.44333539  0.86590963  0.57636838     0.82500
N192        N  0.41333917  0.85265822  0.58861923    -0.78200
C193        C  0.41405246  0.82671658  0.61189158     0.82600
N194        N  0.44457888  0.81423649  0.62255425    -0.79900
C195        C  0.20744274  0.67142303  0.72717759     0.45300
H196        H  0.22349871  0.65471490  0.71077060    -0.03700
C197        C  0.16909783  0.71149959  0.76486927     0.45400
H198        H  0.15279333  0.72861592  0.78078899    -0.03700
C199        C  0.22455786  0.70569458  0.73661424    -0.17400
C200        C  0.17380794  0.68225292  0.70978597    -0.17100
C201        C  0.19667436  0.65525729  0.76162237    -0.17500
C202        C  0.20586794  0.72481907  0.75941704    -0.17500
C203        C  0.15468472  0.70488462  0.72882046    -0.17100
C204        C  0.17391413  0.67537311  0.77954798    -0.17400
C205        C  0.91968930  0.84074598  0.38018083     0.80100
N206        N  0.95083496  0.83051857  0.36893371    -0.78200
C207        C  0.97991360  0.84440554  0.38159619     0.82500
N208        N  0.97813225  0.86891947  0.40636993    -0.78200
C209        C  0.94688914  0.87967558  0.41800312     0.82600
N210        N  0.91763427  0.86552360  0.40476829    -0.79900
C211        C  0.18124425  0.71297708  0.23015887     0.45300
H212        H  0.16695868  0.72999210  0.21235251    -0.03700
C213        C  0.21412155  0.67274704  0.27199867     0.45400
H214        H  0.22637603  0.65464703  0.28990727    -0.03700
C215        C  0.16358450  0.70844195  0.26499251    -0.17400
C216        C  0.18637738  0.67630586  0.21626936    -0.17100
C217        C  0.21790349  0.72535114  0.23854924    -0.17500
C218        C  0.17955072  0.68525308  0.28578595    -0.17500
C219        C  0.20537366  0.65566503  0.23754232    -0.17100
C220        C  0.23436616  0.70597954  0.26333501    -0.17400
C221        C  0.33528192  0.46995812  0.11354869     0.80100
N222        N  0.32684075  0.43833158  0.12483774    -0.78200
C223        C  0.33959124  0.40970857  0.11022880     0.82500
N224        N  0.36139957  0.41240458  0.08330126    -0.78200
C225        C  0.37035787  0.44409504  0.07130044     0.82600
N226        N  0.35726462  0.47296997  0.08655443    -0.79900
C227        C  0.05287049  0.55184917  0.52364901     0.80100
N228        N  0.02637091  0.52909195  0.52402251    -0.78200
C229        C  0.01310595  0.51699740  0.49398132     0.82500
N230        N  0.02636364  0.52814403  0.46369920    -0.78200
C231        C  0.05286551  0.55089976  0.46358598     0.82600
N232        N  0.06587883  0.56254002  0.49349089    -0.79900
C233        C  0.91709484  0.83219002  0.59959591     0.80100
N234        N  0.91518398  0.85834536  0.57657017    -0.78200
C235        C  0.94455738  0.87200580  0.56328312     0.82500
N236        N  0.97569259  0.85973566  0.57373918    -0.78200
C237        C  0.97731397  0.83350691  0.59659463     0.82600
N238        N  0.94808950  0.81993270  0.60912660    -0.79900
C239        C  0.55482031  0.98322110  0.89075931     0.80100
N240        N  0.52643892  0.98150676  0.91086471    -0.78200
C241        C  0.51335360  0.95035528  0.92009157     0.82500
N242        N  0.52868412  0.92091868  0.90843577    -0.78200
C243        C  0.55704137  0.92283494  0.88801792     0.82600
N244        N  0.56991027  0.95396555  0.87979039    -0.79900
C245        C  0.91035583  0.06005170  0.38419275     0.80100
N246        N  0.90965289  0.03752720  0.41089108    -0.78200
C247        C  0.93974083  0.02486760  0.42388195     0.82500
N248        N  0.97028904  0.03537524  0.41032241    -0.78200
C249        C  0.97073748  0.05773714  0.38367207     0.82600
N250        N  0.94086531  0.06965451  0.37088518    -0.79900
C251        C  0.21560959  0.21643341  0.27405645     0.45300
H252        H  0.23112500  0.23339474  0.29094559    -0.03700
C253        C  0.18016251  0.17637407  0.23410415     0.45400
H254        H  0.16504067  0.15917564  0.21708722    -0.03700
C255        C  0.20797175  0.23227042  0.23853444    -0.17400
C256        C  0.23300689  0.18161988  0.26679241    -0.17100
C257        C  0.18015200  0.20721535  0.28886317    -0.17500
C258        C  0.18780716  0.21143173  0.21815139    -0.17500
C259        C  0.21574625  0.16191402  0.24324923    -0.17100
C260        C  0.16205875  0.18468869  0.26835149    -0.17400
C261        C  0.83886473  0.56224748  0.02789202     0.80100
N262        N  0.86092670  0.53511514  0.02964688    -0.78200
C263        C  0.87451794  0.52148245  0.00038914     0.82500
N264        N  0.86591582  0.53518733  0.96942584    -0.78200
C265        C  0.84434602  0.56258892  0.96783799     0.82600
N266        N  0.83115640  0.57573958  0.99696401    -0.79900
O267        O  0.40968411  0.42061359  0.96168575    -0.71900
O268        O  0.47758917  0.42416547  0.03143030    -0.72100
O269        O  0.40898745  0.41986306  0.03068100    -0.72000
O270        O  0.47839176  0.42507795  0.96241726    -0.72000
O271        O  0.47494750  0.48077045  0.96321939    -0.72000
O272        O  0.40515415  0.47552467  0.03161469    -0.72000
O273        O  0.47419136  0.47985569  0.03249042    -0.71900
O274        O  0.40577047  0.47626978  0.96207987    -0.72100
V275        V  0.44357188  0.42358581  0.99654928     1.35200
V276        V  0.44006385  0.47707437  0.99730689     1.35200
C277        C  0.39634087  0.44764775  0.94970312     0.77300
C278        C  0.48722965  0.45244342  0.04416998     0.77400
C279        C  0.39562648  0.44671834  0.04320937     0.77300
C280        C  0.48841055  0.45376193  0.95104958     0.77200
O281        O  0.46978341  0.97569902  0.54235312    -0.71900
O282        O  0.46998274  0.90859250  0.47050725    -0.72100
O283        O  0.46938450  0.97790335  0.47326587    -0.72000
O284        O  0.47045697  0.90629451  0.53950475    -0.72000
O285        O  0.41470699  0.90635963  0.54058860    -0.72000
O286        O  0.41364283  0.97677270  0.47309142    -0.72000
O287        O  0.41430021  0.90705440  0.47186058    -0.71900
O288        O  0.41406804  0.97581875  0.54219336    -0.72100
V289        V  0.46880220  0.94212525  0.50644686     1.35200
V290        V  0.41526622  0.94157033  0.50687824     1.35200
C291        C  0.44192222  0.98735179  0.55446619     0.77300
C292        C  0.44217748  0.89594423  0.45929860     0.77400
C293        C  0.44130732  0.98947138  0.46180788     0.77300
C294        C  0.44279362  0.89403651  0.55120590     0.77200
O295        O  0.90165708  0.41186049  0.46811175    -0.71900
O296        O  0.97286734  0.47935395  0.46673971    -0.72100
O297        O  0.97162020  0.40991059  0.46851199    -0.72000
O298        O  0.90313446  0.48101978  0.46648011    -0.72000
O299        O  0.90292135  0.48224450  0.52199873    -0.72000
O300        O  0.97132506  0.41241143  0.52398054    -0.72000
O301        O  0.97231969  0.48130472  0.52225624    -0.71900
O302        O  0.90210434  0.41347747  0.52364402    -0.72100
V303        V  0.93735015  0.44557252  0.46848685     1.35200
V304        V  0.93719584  0.44728698  0.52181516     1.35200
C305        C  0.88932942  0.40170191  0.49626374     0.77300
C306        C  0.98485973  0.49164849  0.49429983     0.77400
C307        C  0.98342851  0.39937025  0.49686294     0.77300
C308        C  0.89099922  0.49333044  0.49400825     0.77200
C309        C  0.00281351  0.06939188  0.36748363    -0.20000
C310        C  0.00772637  0.06425186  0.33208500     0.36200
C311        C  0.03377548  0.08231356  0.31505507    -0.26000
C312        C  0.05499179  0.10532344  0.33278895     0.02700
C313        C  0.05115112  0.10932531  0.36845367     0.27500
C314        C  0.02500539  0.09122582  0.38555513    -0.25100
N315        N  0.98550439  0.04137619  0.31348302    -0.82500
H316        H  0.03719874  0.07898874  0.28774282     0.13300
C317        C  0.08110705  0.12511583  0.31356916     0.02600
N318        N  0.07325771  0.13240854  0.38688373    -0.81100
H319        H  0.02079990  0.09549425  0.41262540     0.18100
C320        C  0.07561907  0.16032031  0.30780984    -0.25900
C321        C  0.10014071  0.18058037  0.29089408     0.36100
C322        C  0.13120608  0.16514795  0.27979540    -0.19900
C323        C  0.13501452  0.12949032  0.28301877    -0.25200
C324        C  0.11096012  0.10938391  0.30030359     0.27500
H325        H  0.05218542  0.17224562  0.31689782     0.13300
N326        N  0.09237052  0.21623406  0.28521409    -0.82400
H327        H  0.15793368  0.11718846  0.27358779     0.18100
N328        N  0.11872766  0.07359965  0.30524900    -0.81000
H329        H  0.08939069  0.22811973  0.30901804     0.33700
H330        H  0.11237131  0.22879399  0.27273844     0.38200
H331        H  0.11848680  0.06173325  0.28123516     0.33700
H332        H  0.10040368  0.06120933  0.32020806     0.30400
H333        H  0.06692855  0.13270427  0.41285684     0.33700
H334        H  0.09826980  0.12280097  0.38516196     0.30400
H335        H  0.98942172  0.01662572  0.32308355     0.38300
H336        H  0.99229079  0.04062710  0.28763488     0.33800
C337        C  0.22872635  0.26142197  0.22475708    -0.20000
C338        C  0.21457644  0.29046352  0.20806337     0.36200
C339        C  0.23600788  0.31136094  0.18808166    -0.26000
C340        C  0.27132674  0.30458110  0.18498265     0.02700
C341        C  0.28582790  0.27759526  0.20412514     0.27500
C342        C  0.26448908  0.25709276  0.22450023    -0.25100
N343        N  0.17884925  0.29932676  0.21036704    -0.82500
H344        H  0.22492331  0.33307817  0.17473956     0.13300
C345        C  0.29293975  0.32702189  0.16297661     0.02600
N346        N  0.32195153  0.27031098  0.20187584    -0.81100
H347        H  0.27573094  0.23616871  0.23863586     0.18100
C348        C  0.32111811  0.34411206  0.17753193    -0.25900
C349        C  0.33939540  0.36896810  0.15906699     0.36100
C350        C  0.32947923  0.37667246  0.12523447    -0.19900
C351        C  0.30291233  0.35798275  0.10978092    -0.25200
C352        C  0.28457138  0.33304646  0.12831330     0.27500
H353        H  0.32766166  0.33948606  0.20406287     0.13300
N354        N  0.36725609  0.38732338  0.17494682    -0.82400
H355        H  0.29502787  0.36442745  0.08398852     0.18100
N356        N  0.25684108  0.31456715  0.11247187    -0.81000
H357        H  0.37221031  0.37755143  0.19934886     0.33700
H358        H  0.35954261  0.41278968  0.17850192     0.38200
H359        H  0.25358715  0.32242312  0.08711626     0.33700
H360        H  0.26391711  0.28868344  0.11160784     0.30400
H361        H  0.32848335  0.24956726  0.21753515     0.33700
H362        H  0.32711195  0.26268344  0.17674116     0.30400
H363        H  0.16587745  0.28265616  0.22666388     0.38300
H364        H  0.17723615  0.32365363  0.22163982     0.33800
C365        C  0.06637789  0.56559655  0.43177549    -0.20000
C366        C  0.05255169  0.59631708  0.41821464     0.36200
C367        C  0.07115946  0.61442941  0.39350946    -0.26000
C368        C  0.10311300  0.60261008  0.38196873     0.02700
C369        C  0.11604034  0.57107070  0.39402313     0.27500
C370        C  0.09767956  0.55300796  0.41918214    -0.25100
N371        N  0.02069623  0.61079752  0.43002522    -0.82500
H372        H  0.06106430  0.63853082  0.38395823     0.13300
C373        C  0.12278850  0.62384772  0.35747480     0.02600
N374        N  0.14798546  0.55793958  0.38107781    -0.81100
H375        H  0.10840515  0.52972196  0.42996065     0.18100
C376        C  0.15397765  0.63895052  0.36765396    -0.25900
C377        C  0.17275282  0.65994379  0.34507829     0.36100
C378        C  0.16000760  0.66565357  0.31187946    -0.19900
C379        C  0.12881431  0.65049729  0.30191973    -0.25200
C380        C  0.11009052  0.62970370  0.32432059     0.27500
H381        H  0.16344327  0.63456516  0.39334495     0.13300
N382        N  0.20444147  0.67556431  0.35570748    -0.82400
H383        H  0.11935780  0.65427736  0.27619224     0.18100
N384        N  0.07842420  0.61413551  0.31345074    -0.81000
H385        H  0.21023588  0.66876163  0.38091710     0.33700
H386        H  0.20085619  0.70216799  0.35562161     0.38200
H387        H  0.07255942  0.62119457  0.28832536     0.33700
H388        H  0.08207357  0.58752107  0.31328060     0.30400
H389        H  0.15395856  0.53449436  0.39264086     0.33700
H390        H  0.14459252  0.55283334  0.35501810     0.30400
H391        H  0.00890315  0.59528829  0.44828505     0.38300
H392        H  0.00393465  0.61163586  0.40914258     0.33800
C393        C  0.22435889  0.62503846  0.22478588    -0.20000
C394        C  0.20811176  0.59474660  0.21287336     0.36200
C395        C  0.22735861  0.57069706  0.19402103    -0.26000
C396        C  0.26246019  0.57592239  0.18763913     0.02700
C397        C  0.27905417  0.60471074  0.20168814     0.27500
C398        C  0.25991874  0.62862478  0.22054319    -0.25100
N399        N  0.17255790  0.58754774  0.21956646    -0.82500
H400        H  0.21490581  0.54773918  0.18437505     0.13300
C401        C  0.28240242  0.54976783  0.16860775     0.02600
N402        N  0.31520143  0.60974729  0.19628948    -0.81100
H403        H  0.27271459  0.65085550  0.23103758     0.18100
C404        C  0.29179635  0.55549872  0.13439440    -0.25900
C405        C  0.31051340  0.53061900  0.11578745     0.36100
C406        C  0.32023560  0.49976406  0.13208050    -0.19900
C407        C  0.31201414  0.49515494  0.16687093    -0.25200
C408        C  0.29320703  0.51970432  0.18518369     0.27500
H409        H  0.28386214  0.57910678  0.12206210     0.13300
N410        N  0.31867600  0.53618800  0.08040856    -0.82400
H411        H  0.31982553  0.47185150  0.17984061     0.18100
N412        N  0.28467893  0.51411833  0.22051989    -0.81000
H413        H  0.31000846  0.56033626  0.07253754     0.33700
H414        H  0.30507204  0.51806790  0.06600466     0.38200
H415        H  0.29418307  0.49044735  0.22885504     0.33700
H416        H  0.29719794  0.53296294  0.23498213     0.30400
H417        H  0.32338149  0.63260001  0.20780464     0.33700
H418        H  0.32819061  0.58981006  0.20865037     0.30400
H419        H  0.16199822  0.60605233  0.23581985     0.38300
H420        H  0.17148366  0.56446366  0.23313513     0.33800
C421        C  0.13773608  0.73254162  0.27929158    -0.20000
C422        C  0.14725072  0.75478962  0.30629364     0.36200
C423        C  0.12209322  0.77379764  0.32347194    -0.26000
C424        C  0.08760255  0.77130261  0.31407403     0.02700
C425        C  0.07799579  0.75010367  0.28629069     0.27500
C426        C  0.10332502  0.73090553  0.26896671    -0.25100
N427        N  0.18262858  0.75803847  0.31603862    -0.82500
H428        H  0.12932661  0.79062561  0.34440084     0.13300
C429        C  0.06208123  0.79167003  0.33345697     0.02600
N430        N  0.04257398  0.74778440  0.27626664    -0.81100
H431        H  0.09606733  0.71380257  0.24832673     0.18100
C432        C  0.04754683  0.82045470  0.31760104    -0.25900
C433        C  0.02293603  0.84062673  0.33429394     0.36100
C434        C  0.01259578  0.83178263  0.36780369    -0.19900
C435        C  0.02822491  0.80393138  0.38429452    -0.25200
C436        C  0.05270849  0.78353847  0.36753101     0.27500
H437        H  0.05505474  0.82701725  0.29173949     0.13300
N438        N  0.00814069  0.86905329  0.31600569    -0.82400
H439        H  0.01966272  0.79656040  0.40961200     0.18100
N440        N  0.06633075  0.75426212  0.38543097    -0.81000
H441        H  0.02800724  0.88616745  0.31035914     0.33700
H442        H  0.99082243  0.88273772  0.33116953     0.38200
H443        H  0.04583687  0.73780283  0.39078081     0.33700
H444        H  0.08333681  0.74014353  0.37035364     0.30400
H445        H  0.03981510  0.73114962  0.25540388     0.33700
H446        H  0.02907847  0.73677070  0.29656770     0.30400
H447        H  0.19495483  0.77023040  0.29575493     0.38300
H448        H  0.18525273  0.77431815  0.33718832     0.33800
C449        C  0.00996807  0.82003194  0.60980170    -0.20000
C450        C  0.02689337  0.83690761  0.63686594     0.36200
C451        C  0.05164928  0.81899887  0.65603937    -0.26000
C452        C  0.05995899  0.78469984  0.64833447     0.02700
C453        C  0.04463659  0.76869209  0.61969916     0.27500
C454        C  0.01933466  0.78636339  0.60107483    -0.25100
N455        N  0.01716153  0.87130309  0.64616589    -0.82500
H456        H  0.06343098  0.83132706  0.67797727     0.13300
C457        C  0.08355128  0.76539146  0.67125835     0.02600
N458        N  0.05426522  0.73429820  0.61021777    -0.81100
H459        H  0.00581546  0.77336776  0.58054301     0.18100
C460        C  0.07267543  0.73410347  0.68567084    -0.25900
C461        C  0.09483298  0.71445612  0.70628709     0.36100
C462        C  0.12803165  0.72677046  0.71310468    -0.19900
C463        C  0.13823108  0.75877984  0.70036928    -0.25200
C464        C  0.11667805  0.77788975  0.67884481     0.27500
H465        H  0.04702652  0.72476056  0.68033007     0.13300
N466        N  0.08425314  0.68173101  0.71951228    -0.82400
H467        H  0.16395527  0.76784964  0.70548215     0.18100
N468        N  0.12880562  0.80915613  0.66353823    -0.81000
H469        H  0.05909417  0.67622179  0.71195761     0.33700
H470        H  0.08412138  0.68356173  0.74619671     0.38200
H471        H  0.15380796  0.81462573  0.67164843     0.33700
H472        H  0.13005959  0.80511091  0.63712020     0.30400
H473        H  0.04048772  0.72620838  0.58869642     0.33700
H474        H  0.08013745  0.73477384  0.60313527     0.30400
H475        H  0.02350186  0.88731783  0.62569412     0.38300
H476        H  0.03154230  0.87981021  0.66712846     0.33800
C477        C  0.15877022  0.66216643  0.68124765    -0.20000
C478        C  0.15178088  0.67657470  0.64896975     0.36200
C479        C  0.13366916  0.65701180  0.62452836    -0.26000
C480        C  0.12289790  0.62333721  0.63186122     0.02700
C481        C  0.13081920  0.60889287  0.66382226     0.27500
C482        C  0.14872137  0.62832254  0.68810309    -0.25100
N483        N  0.16279891  0.71091111  0.64133432    -0.82500
H484        H  0.12786849  0.66797904  0.59974180     0.13300
C485        C  0.10318472  0.60345148  0.60607190     0.02600
N486        N  0.11964315  0.57487363  0.67212907    -0.81100
H487        H  0.15374776  0.61723052  0.71294169     0.18100
C488        C  0.11701905  0.57282621  0.59304695    -0.25900
C489        C  0.09984526  0.55387152  0.56776412     0.36100
C490        C  0.06789669  0.56583537  0.55526540    -0.19900
C491        C  0.05356223  0.59591010  0.56901147    -0.25200
C492        C  0.07086716  0.61483060  0.59442721     0.27500
H493        H  0.14182596  0.56400005  0.60204004     0.13300
N494        N  0.11614002  0.52337375  0.55468816    -0.82400
H495        H  0.02944300  0.60536863  0.55888050     0.18100
N496        N  0.05612854  0.64584014  0.60805024    -0.81000
H497        H  0.11864248  0.50614587  0.57501103     0.33700
H498        H  0.10094284  0.51103740  0.53641231     0.38200
H499        H  0.03237136  0.65082187  0.59661718     0.33700
H500        H  0.05139869  0.64182673  0.63405075     0.30400
H501        H  0.10402343  0.57639704  0.69380705     0.33700
H502        H  0.14129545  0.56031212  0.67843899     0.30400
H503        H  0.18962748  0.71119068  0.64199970     0.38300
H504        H  0.15548705  0.71775313  0.61653430     0.33800
C505        C  0.25144123  0.72225836  0.71510185    -0.20000
C506        C  0.28151652  0.70501008  0.70497427     0.36200
C507        C  0.30633593  0.72255661  0.68570293    -0.26000
C508        C  0.30148798  0.75707412  0.67650441     0.02700
C509        C  0.27129537  0.77424094  0.68602762     0.27500
C510        C  0.24631999  0.75646771  0.70452099    -0.25100
N511        N  0.28756886  0.67025408  0.71522855    -0.82500
H512        H  0.32988046  0.70952179  0.67864765     0.13300
C513        C  0.32948577  0.77609148  0.65979775     0.02600
N514        N  0.26657772  0.80990289  0.67765470    -0.81100
H515        H  0.22297783  0.76979566  0.71131433     0.18100
C516        C  0.32644164  0.78599770  0.62542684    -0.25900
C517        C  0.35296508  0.80429868  0.60914718     0.36100
C518        C  0.38279750  0.81264507  0.62790917    -0.19900
C519        C  0.38492279  0.80370787  0.66267371    -0.25200
C520        C  0.35857397  0.78561412  0.67880586     0.27500
H521        H  0.30356063  0.77898360  0.61125916     0.13300
N522        N  0.35040483  0.81279179  0.57349272    -0.82400
H523        H  0.40763286  0.81043986  0.67726397     0.18100
N524        N  0.36127433  0.77657751  0.71436489    -0.81000
H525        H  0.32759447  0.80311625  0.56316204     0.33700
H526        H  0.34873887  0.83952691  0.57170742     0.38200
H527        H  0.38457129  0.78515071  0.72457882     0.33700
H528        H  0.34188297  0.78965231  0.72751773     0.30400
H529        H  0.24280946  0.81868618  0.68647835     0.33700
H530        H  0.28524771  0.82394977  0.69089630     0.30400
H531        H  0.31041813  0.66956189  0.72926022     0.38300
H532        H  0.29098837  0.65543146  0.69315927     0.33800
C533        C  0.50623822  0.81333206  0.62511387    -0.20000
C534        C  0.52319334  0.82996622  0.65255580     0.36200
C535        C  0.54879588  0.81227694  0.67046844    -0.26000
C536        C  0.55744923  0.77828857  0.66207918     0.02700
C537        C  0.54082373  0.76180541  0.63459580     0.27500
C538        C  0.51524312  0.77950523  0.61643000    -0.25100
N539        N  0.51390273  0.86379365  0.66425710    -0.82500
H540        H  0.56146220  0.82485801  0.69178933     0.13300
C541        C  0.58449281  0.76068681  0.68205527     0.02600
N542        N  0.54967632  0.72708233  0.62562311    -0.81100
H543        H  0.50140743  0.76650109  0.59610766     0.18100
C544        C  0.57659689  0.73122158  0.70131371    -0.25900
C545        C  0.60186110  0.71507229  0.72140005     0.36100
C546        C  0.63516254  0.72873434  0.72233127    -0.19900
C547        C  0.64293493  0.75792993  0.70282902    -0.25200
C548        C  0.61810287  0.77387124  0.68250659     0.27500
H549        H  0.55068874  0.72111079  0.70112839     0.13300
N550        N  0.59347199  0.68558691  0.74152982    -0.82400
H551        H  0.66865763  0.76834511  0.70348238     0.18100
N552        N  0.62684242  0.80335814  0.66221319    -0.81000
H553        H  0.57366560  0.69240550  0.75824534     0.33700
H554        H  0.58423875  0.66649733  0.72507724     0.38200
H555        H  0.65264951  0.80992177  0.66563766     0.33700
H556        H  0.62401390  0.79644582  0.63650782     0.30400
H557        H  0.53479640  0.71858301  0.60500600     0.33700
H558        H  0.57517144  0.72709845  0.61729631     0.30400
H559        H  0.49418588  0.87446826  0.64966672     0.38300
H560        H  0.53527125  0.87967530  0.66101735     0.33800
C561        C  0.73964548  0.67152986  0.81053459    -0.20000
C562        C  0.73976346  0.68081640  0.84547846     0.36200
C563        C  0.76120672  0.66287377  0.86813404    -0.26000
C564        C  0.78318094  0.63655774  0.85662219     0.02700
C565        C  0.78437247  0.62870744  0.82146316     0.27500
C566        C  0.76224593  0.64590934  0.79892414    -0.25100
N567        N  0.71832565  0.70766774  0.85898949    -0.82500
H568        H  0.76022142  0.66911999  0.89514046     0.13300
C569        C  0.80365115  0.61667190  0.88193884     0.02600
N570        N  0.80797079  0.60326907  0.80884712    -0.81100
H571        H  0.76231009  0.63904260  0.77205976     0.18100
C572        C  0.79979043  0.58076852  0.88381859    -0.25900
C573        C  0.81515320  0.56176063  0.91037754     0.36100
C574        C  0.83472957  0.57910430  0.93532767    -0.19900
C575        C  0.84004874  0.61461112  0.93237153    -0.25200
C576        C  0.82508568  0.63351067  0.90571437     0.27500
H577        H  0.78332072  0.56780903  0.86554487     0.13300
N578        N  0.80949818  0.52537591  0.91308556    -0.82400
H579        H  0.85506398  0.62782402  0.95170142     0.18100
N580        N  0.83091411  0.66987264  0.90308967    -0.81000
H581        H  0.79462070  0.51657253  0.89258123     0.33700
H582        H  0.79514896  0.52102735  0.93523184     0.38200
H583        H  0.84710986  0.67835334  0.92270969     0.33700
H584        H  0.84388547  0.67425338  0.88011779     0.30400
H585        H  0.80558480  0.60055994  0.78233383     0.33700
H586        H  0.83281466  0.61233437  0.81345965     0.30400
H587        H  0.70411623  0.71968000  0.83981814     0.38300
H588        H  0.70075702  0.69636948  0.87572848     0.33800
C589        C  0.66808064  0.76236268  0.78374893    -0.20000
C590        C  0.67708924  0.79700503  0.77970565     0.36200
C591        C  0.65948905  0.82242420  0.79850880    -0.26000
C592        C  0.63331900  0.81353081  0.82176920     0.02700
C593        C  0.62527384  0.77852992  0.82656596     0.27500
C594        C  0.64227996  0.75348684  0.80709696    -0.25100
N595        N  0.70311726  0.80646182  0.75569823    -0.82500
H596        H  0.66579724  0.84920348  0.79442884     0.13300
C597        C  0.61380756  0.84079418  0.84037888     0.02600
N598        N  0.59988745  0.76855066  0.85128425    -0.81100
H599        H  0.63529337  0.72674874  0.81006342     0.18100
C600        C  0.57771206  0.84129761  0.83845687    -0.25900
C601        C  0.55823426  0.86643763  0.85573457     0.36100
C602        C  0.57523871  0.89208876  0.87477005    -0.19900
C603        C  0.61129503  0.89148181  0.87680609    -0.25200
C604        C  0.63070738  0.86593264  0.86022050     0.27500
H605        H  0.56469165  0.82222430  0.82293892     0.13300
N606        N  0.52150273  0.86708397  0.85243560    -0.82400
H607        H  0.62441434  0.91140219  0.89116461     0.18100
N608        N  0.66747738  0.86547076  0.86340116    -0.81000
H609        H  0.51316566  0.84734020  0.83625612     0.33700
H610        H  0.51117046  0.86185988  0.87652060     0.38200
H611        H  0.67590780  0.88585381  0.87871427     0.33700
H612        H  0.67424914  0.84287454  0.87614765     0.30400
H613        H  0.59691131  0.74185386  0.85155532     0.33700
H614        H  0.60909375  0.77555441  0.87544251     0.30400
H615        H  0.69215287  0.82311670  0.73780229     0.38300
H616        H  0.72221387  0.81991277  0.76889835     0.33800
C617        C  0.75915290  0.73172156  0.71326686    -0.20000
C618        C  0.75287479  0.74494434  0.68017598     0.36200
C619        C  0.77885871  0.76227329  0.66277318    -0.26000
C620        C  0.81094224  0.76721363  0.67784718     0.02700
C621        C  0.81707128  0.75517354  0.71137690     0.27500
C622        C  0.79106353  0.73758026  0.72885403    -0.25100
N623        N  0.71996340  0.74127030  0.66420927    -0.82500
H624        H  0.77400368  0.77181076  0.63718808     0.13300
C625        C  0.83777584  0.78397999  0.65728088     0.02600
N626        N  0.84936267  0.76050855  0.72809540    -0.81100
H627        H  0.79600014  0.72784977  0.75433459     0.18100
C628        C  0.83944618  0.81995044  0.65625397    -0.25900
C629        C  0.86371850  0.83670555  0.63552699     0.36100
C630        C  0.88654578  0.81687810  0.61565298    -0.19900
C631        C  0.88408925  0.78088512  0.61611351    -0.25200
C632        C  0.85969322  0.76421116  0.63651358     0.27500
H633        H  0.82191252  0.83487997  0.67183670     0.13300
N634        N  0.86646807  0.87351572  0.63598673    -0.82400
H635        H  0.90187927  0.76573151  0.60102586     0.18100
N636        N  0.85675048  0.72737048  0.63594667    -0.81000
H637        H  0.85969869  0.88237136  0.61168106     0.33700
H638        H  0.84868099  0.88410391  0.65302663     0.38200
H639        H  0.87433150  0.71671409  0.61873857     0.33700
H640        H  0.86343815  0.71819940  0.66014407     0.30400
H641        H  0.86863958  0.74910611  0.71338643     0.33700
H642        H  0.85403951  0.78693440  0.72910889     0.30400
H643        H  0.71080090  0.76580716  0.65832409     0.38300
H644        H  0.72334469  0.72799859  0.64117939     0.33800
C645        C  0.56493154  0.52048153  0.87548606    -0.20000
C646        C  0.59297841  0.53626378  0.89234462     0.36200
C647        C  0.61223488  0.56104605  0.87496750    -0.26000
C648        C  0.60407169  0.57057902  0.84134427     0.02700
C649        C  0.57488850  0.55643508  0.82533386     0.27500
C650        C  0.55579699  0.53119976  0.84247554    -0.25100
N651        N  0.60394763  0.52644128  0.92608041    -0.82500
H652        H  0.63460870  0.57200650  0.88737056     0.13300
C653        C  0.62702994  0.59455707  0.82295043     0.02600
N654        N  0.56532781  0.56718745  0.79148462    -0.81100
H655        H  0.53459627  0.51870011  0.82948152     0.18100
C656        C  0.64285887  0.58403007  0.79232493    -0.25900
C657        C  0.66513334  0.60612596  0.77455016     0.36100
C658        C  0.67193670  0.63892475  0.78805571    -0.19900
C659        C  0.65636643  0.64916578  0.81878813    -0.25200
C660        C  0.63372866  0.62752986  0.83618513     0.27500
H661        H  0.63782547  0.55852059  0.78237105     0.13300
N662        N  0.68075854  0.59553895  0.74295599    -0.82400
H663        H  0.66085346  0.67473985  0.82861914     0.18100
N664        N  0.61686151  0.63917896  0.86678826    -0.81000
H665        H  0.67311585  0.57060562  0.73652779     0.33700
H666        H  0.70731209  0.59473986  0.74684565     0.38200
H667        H  0.62468844  0.66410146  0.87310160     0.33700
H668        H  0.59056831  0.64050926  0.86156428     0.30400
H669        H  0.54334342  0.55414329  0.78328970     0.33700
H670        H  0.55880410  0.59322118  0.79280055     0.30400
H671        H  0.58787967  0.50786437  0.93665237     0.38300
H672        H  0.60187576  0.54810467  0.94180406     0.33800
C673        C  0.57047062  0.01610953  0.88077056    -0.20000
C674        C  0.60543228  0.02218914  0.88801212     0.36200
C675        C  0.62269572  0.04886421  0.87116858    -0.26000
C676        C  0.60567206  0.06922796  0.84707536     0.02700
C677        C  0.57019725  0.06469206  0.84145173     0.27500
C678        C  0.55277590  0.03809753  0.85853397    -0.25100
N679        N  0.62352711  0.00019744  0.91139278    -0.82500
H680        H  0.64988506  0.05277631  0.87558681     0.13300
C681        C  0.62601219  0.09315896  0.82592301     0.02600
N682        N  0.55247999  0.08624711  0.81743587    -0.81100
H683        H  0.52599892  0.03313824  0.85284720     0.18100
C684        C  0.63447694  0.08359820  0.79239950    -0.25900
C685        C  0.65304031  0.10564499  0.77098525     0.36100
C686        C  0.66427854  0.13784490  0.78395585    -0.19900
C687        C  0.65735052  0.14632877  0.81821908    -0.25200
C688        C  0.63760865  0.12470682  0.83907939     0.27500
H689        H  0.62591076  0.05899551  0.78254108     0.13300
N690        N  0.65958544  0.09443091  0.73653904    -0.82400
H691        H  0.66575906  0.17088415  0.82822242     0.18100
N692        N  0.62854513  0.13497328  0.87323285    -0.81000
H693        H  0.63590382  0.09043102  0.72459270     0.33700
H694        H  0.67201875  0.11327871  0.72237623     0.38200
H695        H  0.63900912  0.15904361  0.87897323     0.33700
H696        H  0.60187057  0.13791530  0.87397470     0.30400
H697        H  0.52658136  0.07936755  0.81590329     0.33700
H698        H  0.55322241  0.11135365  0.82697378     0.30400
H699        H  0.61241297  0.00339158  0.93551924     0.38300
H700        H  0.64915757  0.00783554  0.91366719     0.33800
C701        C  0.56669218  0.39655256  0.86896465    -0.20000
C702        C  0.58745328  0.37292445  0.88719237     0.36200
C703        C  0.60548054  0.34750478  0.86902874    -0.26000
C704        C  0.60358472  0.34522812  0.83324679     0.02700
C705        C  0.58216987  0.36823253  0.81514949     0.27500
C706        C  0.56418566  0.39358428  0.83324286    -0.25100
N707        N  0.59252480  0.37491595  0.92358533    -0.82500
H708        H  0.62176927  0.32977108  0.88293372     0.13300
C709        C  0.62377767  0.31828928  0.81552528     0.02600
N710        N  0.57818184  0.36689299  0.77857839    -0.81100
H711        H  0.54861340  0.41177302  0.81909374     0.18100
C712        C  0.60835678  0.28649135  0.80932734    -0.25900
C713        C  0.62641132  0.25998719  0.79290746     0.36100
C714        C  0.66055703  0.26551420  0.78206871    -0.19900
C715        C  0.67603292  0.29750772  0.78818213    -0.25200
C716        C  0.65780877  0.32411808  0.80468259     0.27500
H717        H  0.58223121  0.28223495  0.81781629     0.13300
N718        N  0.61047790  0.22709085  0.78817865    -0.82400
H719        H  0.70241573  0.30152604  0.78044551     0.18100
N720        N  0.67372946  0.35684041  0.81085877    -0.81000
H721        H  0.58503024  0.22754354  0.79664428     0.33700
H722        H  0.62337464  0.20971636  0.80391404     0.38200
H723        H  0.69891111  0.35685039  0.80163969     0.33700
H724        H  0.66029305  0.37520303  0.79667729     0.30400
H725        H  0.58801588  0.38975354  0.76861060     0.33700
H726        H  0.59234504  0.34695998  0.76763069     0.30400
H727        H  0.57951574  0.39557560  0.93453314     0.38300
H728        H  0.58226075  0.35259742  0.93431320     0.33800
C729        C  0.50432788  0.06699908  0.63227312    -0.20000
C730        C  0.51924344  0.05537673  0.66297656     0.36200
C731        C  0.54285928  0.07649746  0.68046265    -0.26000
C732        C  0.55119824  0.10936048  0.66819398     0.02700
C733        C  0.53659102  0.12067774  0.63706220     0.27500
C734        C  0.51349770  0.09926790  0.61937592    -0.25100
N735        N  0.50903066  0.02289315  0.67705702    -0.82500
H736        H  0.55446392  0.06751657  0.70400217     0.13300
C737        C  0.57632108  0.13108471  0.68729719     0.02600
N738        N  0.54428868  0.15437661  0.62418821    -0.81100
H739        H  0.50095133  0.10863091  0.59645562     0.18100
C740        C  0.60542822  0.14280723  0.67005175    -0.25900
C741        C  0.63082059  0.16169014  0.68697746     0.36100
C742        C  0.62776046  0.16923146  0.72206852    -0.19900
C743        C  0.59820887  0.15816471  0.73946594    -0.25200
C744        C  0.57228714  0.13937413  0.72233631     0.27500
H745        H  0.60914251  0.13623931  0.64335376     0.13300
N746        N  0.66093959  0.17122026  0.66867964    -0.82400
H747        H  0.59580122  0.16318964  0.76658219     0.18100
N748        N  0.54209383  0.12850401  0.74036696    -0.81000
H749        H  0.65342804  0.18638920  0.64795386     0.33700
H750        H  0.67220038  0.14875467  0.65914517     0.38200
H751        H  0.54297621  0.13690019  0.76576243     0.33700
H752        H  0.52103139  0.14072441  0.72910718     0.30400
H753        H  0.53148138  0.15875267  0.60109469     0.33700
H754        H  0.53472862  0.17228263  0.64174390     0.30400
H755        H  0.51684259  0.00373323  0.65996940     0.38300
H756        H  0.52188351  0.01829048  0.70008824     0.33800
C757        C  0.25208581  0.16349171  0.72153573    -0.20000
C758        C  0.25123282  0.15691916  0.68608184     0.36200
C759        C  0.27836254  0.13930052  0.67041693    -0.26000
C760        C  0.30631335  0.12733722  0.68942367     0.02700
C761        C  0.30828784  0.13542931  0.72483527     0.27500
C762        C  0.28097326  0.15327777  0.74049032    -0.25100
N763        N  0.22137036  0.16565547  0.66657166    -0.82500
H764        H  0.27696698  0.13340465  0.64333693     0.13300
C765        C  0.33241981  0.10643428  0.67092831     0.02600
N766        N  0.33708310  0.12560808  0.74566254    -0.81100
H767        H  0.28185538  0.15828223  0.76774204     0.18100
C768        C  0.35230939  0.12286289  0.64602041    -0.25900
C769        C  0.37632298  0.10479487  0.62632391     0.36100
C770        C  0.38108102  0.06912155  0.63183511    -0.19900
C771        C  0.36043422  0.05231662  0.65594651    -0.25200
C772        C  0.33592647  0.07040432  0.67537732     0.27500
H773        H  0.34916719  0.15021446  0.64185778     0.13300
N774        N  0.39586380  0.12371098  0.60145889    -0.82400
H775        H  0.36429357  0.02516284  0.66068547     0.18100
N776        N  0.31512417  0.05131138  0.69900493    -0.81000
H777        H  0.37847302  0.13421598  0.58397589     0.33700
H778        H  0.41182080  0.10765499  0.58715507     0.38200
H779        H  0.33137396  0.04149627  0.71790927     0.33700
H780        H  0.29727923  0.06692306  0.71139666     0.30400
H781        H  0.34841898  0.14815476  0.75487743     0.33700
H782        H  0.35586323  0.11308156  0.73128407     0.30400
H783        H  0.20188319  0.14947996  0.67526459     0.38300
H784        H  0.22491542  0.15987534  0.64068558     0.33800
C785        C  0.31719206  0.88155242  0.86687437    -0.20000
C786        C  0.31347671  0.88086833  0.83097311     0.36200
C787        C  0.29352683  0.85513337  0.81567517    -0.26000
C788        C  0.27747396  0.83005521  0.83560213     0.02700
C789        C  0.28301881  0.82935357  0.87129857     0.27500
C790        C  0.30300980  0.85522666  0.88667386    -0.25100
N791        N  0.32913957  0.90710977  0.81040578    -0.82500
H792        H  0.29016466  0.85475745  0.78815030     0.13300
C793        C  0.25679808  0.80340489  0.81825609     0.02600
N794        N  0.26743223  0.80302885  0.89178160    -0.81100
H795        H  0.30556922  0.85617645  0.91426282     0.18100
C796        C  0.26904687  0.76980870  0.81860134    -0.25900
C797        C  0.25254767  0.74402419  0.80030427     0.36100
C798        C  0.22245889  0.75157444  0.78115437    -0.19900
C799        C  0.20922786  0.78508669  0.78195264    -0.25200
C800        C  0.22642498  0.81131048  0.80011689     0.27500
H801        H  0.29227996  0.76368983  0.83263159     0.13300
N802        N  0.26667071  0.71020964  0.80264321    -0.82400
H803        H  0.18620402  0.79097460  0.76753713     0.18100
N804        N  0.21351232  0.84589205  0.79999601    -0.81000
H805        H  0.27546719  0.70224651  0.77876328     0.33700
H806        H  0.24735385  0.69386486  0.81090654     0.38200
H807        H  0.19109666  0.84744757  0.78534435     0.33700
H808        H  0.20667610  0.85213058  0.82510499     0.30400
H809        H  0.27403192  0.80617951  0.91752634     0.33700
H810        H  0.24082190  0.80615755  0.89016155     0.30400
H811        H  0.35573568  0.90477275  0.81321781     0.38300
H812        H  0.32375909  0.90309482  0.78449875     0.33800
C813        C  0.29765908  0.00278256  0.87845358    -0.20000
C814        C  0.31253292  0.03444067  0.86933402     0.36200
C815        C  0.29275292  0.05856137  0.85102958    -0.26000
C816        C  0.25868425  0.05142640  0.84149953     0.02700
C817        C  0.24309722  0.02071308  0.85267943     0.27500
C818        C  0.26276270  0.99691554  0.87093792    -0.25100
N819        N  0.34790516  0.04135393  0.87715766    -0.82500
H820        H  0.30429285  0.08255526  0.84302852     0.13300
C821        C  0.24016149  0.07654752  0.81992508     0.02600
N822        N  0.20789687  0.01229071  0.84523108    -0.81100
H823        H  0.25091823  0.97279229  0.87813902     0.18100
C824        C  0.23974467  0.07259053  0.78418436    -0.25900
C825        C  0.22415819  0.09748197  0.76306578     0.36100
C826        C  0.20999985  0.12727780  0.77811800    -0.19900
C827        C  0.20836486  0.12954249  0.81389470    -0.25200
C828        C  0.22321670  0.10456382  0.83496144     0.27500
H829        H  0.25189875  0.05027335  0.77283230     0.13300
N830        N  0.22270991  0.09268104  0.72666677    -0.82400
H831        H  0.19661544  0.15162186  0.82557930     0.18100
N832        N  0.22197481  0.10794363  0.87156506    -0.81000
H833        H  0.23382452  0.06921904  0.71979350     0.33700
H834        H  0.19684245  0.09130844  0.71966601     0.38200
H835        H  0.20896052  0.13038300  0.87855067     0.33700
H836        H  0.20749839  0.08743251  0.88098638     0.30400
H837        H  0.19491508  0.01047005  0.86854645     0.33700
H838        H  0.19567197  0.03164189  0.83138659     0.30400
H839        H  0.36288032  0.02417511  0.86298648     0.38300
H840        H  0.35467290  0.06600307  0.86903034     0.33800
C841        C  0.16560094  0.22472987  0.31985173    -0.20000
C842        C  0.16317583  0.26091348  0.32097312     0.36200
C843        C  0.14372403  0.27705736  0.34652400    -0.26000
C844        C  0.12663497  0.25800838  0.37153819     0.02700
C845        C  0.13101769  0.22182147  0.37222281     0.27500
C846        C  0.15065232  0.20569894  0.34651713    -0.25100
N847        N  0.17937066  0.28158083  0.29548138    -0.82500
H848        H  0.14162422  0.30483100  0.34659578     0.13300
C849        C  0.10700518  0.27730422  0.39798481     0.02600
N850        N  0.11550196  0.20063634  0.39797638    -0.81100
H851        H  0.15310451  0.17797588  0.34666936     0.18100
C852        C  0.07200430  0.28476438  0.39264972    -0.25900
C853        C  0.05291421  0.30421288  0.41671505     0.36100
C854        C  0.06945776  0.31696085  0.44630090    -0.19900
C855        C  0.10462642  0.30991266  0.45089105    -0.25200
C856        C  0.12341631  0.29017438  0.42756831     0.27500
H857        H  0.05952536  0.27506963  0.36980011     0.13300
N858        N  0.01688688  0.31022188  0.41159701    -0.82400
H859        H  0.11782711  0.31949872  0.47339375     0.18100
N860        N  0.15909451  0.28393353  0.43490536    -0.81000
H861        H  0.00874675  0.29918135  0.38856734     0.33700
H862        H  0.00368603  0.29751304  0.43109040     0.38200
H863        H  0.16031724  0.26966965  0.45750254     0.33700
H864        H  0.17092354  0.26905800  0.41609116     0.30400
H865        H  0.13529951  0.18912617  0.41192552     0.33700
H866        H  0.10116840  0.21514233  0.41530866     0.30400
H867        H  0.16049086  0.29691406  0.28420119     0.38300
H868        H  0.19679886  0.29790029  0.30776571     0.33800
C869        C  0.15613117  0.23893419  0.69336195    -0.20000
C870        C  0.17243717  0.25358552  0.66472568     0.36200
C871        C  0.15407099  0.27623940  0.64335462    -0.26000
C872        C  0.11964238  0.28464071  0.65021699     0.02700
C873        C  0.10423498  0.27230918  0.68027718     0.27500
C874        C  0.12253533  0.24976409  0.70143701    -0.25100
N875        N  0.20669635  0.24380662  0.65587934    -0.82500
H876        H  0.16610914  0.28570771  0.62025957     0.13300
C877        C  0.09855042  0.30226186  0.62380828     0.02600
N878        N  0.06958709  0.28193933  0.68857443    -0.81100
H879        H  0.10991254  0.23967366  0.72391995     0.18100
C880        C  0.07093945  0.28428019  0.60922430    -0.25900
C881        C  0.05186416  0.29805031  0.58217384     0.36100
C882        C  0.06087359  0.33059320  0.56892656    -0.19900
C883        C  0.08738654  0.34942340  0.58453466    -0.25200
C884        C  0.10617360  0.33564387  0.61215755     0.27500
H885        H  0.06479676  0.25870652  0.61827267     0.13300
N886        N  0.02446406  0.27768114  0.56801681    -0.82400
H887        H  0.09444464  0.37421452  0.57413659     0.18100
N888        N  0.13330183  0.35501118  0.62796591    -0.81000
H889        H  0.00645160  0.27379278  0.58742699     0.33700
H890        H  0.01147365  0.29066610  0.54859317     0.38200
H891        H  0.13566937  0.37907426  0.61637568     0.33700
H892        H  0.12619447  0.35956659  0.65335537     0.30400
H893        H  0.06180819  0.27037649  0.71138901     0.33700
H894        H  0.06936419  0.30846007  0.69290092     0.30400
H895        H  0.22168035  0.26606457  0.65504178     0.38300
H896        H  0.20622856  0.23308038  0.63134512     0.33800
C897        C  0.12120978  0.16952722  0.71192766    -0.20000
C898        C  0.11981356  0.16499327  0.67574920     0.36200
C899        C  0.09275421  0.14680034  0.66072409    -0.26000
C900        C  0.06710004  0.13193859  0.68047574     0.02700
C901        C  0.06782931  0.13601109  0.71631541     0.27500
C902        C  0.09456554  0.15513084  0.73159961    -0.25100
N903        N  0.14599924  0.17783839  0.65361723    -0.82500
H904        H  0.09209533  0.14376890  0.63314906     0.13300
C905        C  0.03955801  0.11267925  0.66262617     0.02600
N906        N  0.04205293  0.11989853  0.73708899    -0.81100
H907        H  0.09434094  0.15866800  0.75902163     0.18100
C908        C  0.04728739  0.08052890  0.64798332    -0.25900
C909        C  0.02213427  0.06134295  0.63029805     0.36100
C910        C  0.98865293  0.07480351  0.62715744    -0.19900
C911        C  0.98163205  0.10766057  0.64060814    -0.25200
C912        C  0.00649665  0.12681402  0.65794750     0.27500
H913        H  0.07298436  0.07022909  0.65077494     0.13300
N914        N  0.03032904  0.02817368  0.61630922    -0.82400
H915        H  0.95631885  0.11883588  0.63759437     0.18100
N916        N  0.99734368  0.16074707  0.66947395    -0.81000
H917        H  0.05620569  0.02235164  0.62044448     0.33700
H918        H  0.01612939  0.00989007  0.62978104     0.38200
H919        H  0.97833205  0.15818689  0.68814436     0.33700
H920        H  0.01792913  0.17356421  0.68083101     0.30400
H921        H  0.04696106  0.12429588  0.76302746     0.33700
H922        H  0.01854809  0.13164139  0.73176927     0.30400
H923        H  0.13452493  0.19496415  0.63648826     0.38300
H924        H  0.15547307  0.15728106  0.63917877     0.33800
C925        C  0.86638689  0.05593031  0.62764321    -0.20000
C926        C  0.86033800  0.05104041  0.66300656     0.36200
C927        C  0.83615919  0.07167813  0.67973899    -0.26000
C928        C  0.81757731  0.09674327  0.66195867     0.02700
C929        C  0.82113241  0.09937828  0.62617777     0.27500
C930        C  0.84568723  0.07893127  0.60929465    -0.25100
N931        N  0.87948655  0.02664527  0.68298700    -0.82500
H932        H  0.83292345  0.06914200  0.70714986     0.13300
C933        C  0.79588884  0.12111804  0.68151917     0.02600
N934        N  0.80074354  0.12372319  0.60747060    -0.81100
H935        H  0.85053213  0.08287371  0.58229748     0.18100
C936        C  0.80544177  0.15578679  0.68355614    -0.25900
C937        C  0.78565754  0.17980211  0.70183826     0.36100
C938        C  0.75504933  0.16874342  0.71841576    -0.19900
C939        C  0.74758587  0.13340971  0.71843407    -0.25200
C940        C  0.76705152  0.10968251  0.69966764     0.27500
H941        H  0.82856775  0.16430564  0.67073741     0.13300
N942        N  0.79833853  0.21436666  0.70363439    -0.82400
H943        H  0.72593775  0.12413087  0.73270933     0.18100
N944        N  0.75742740  0.07404018  0.69864351    -0.81000
H945        H  0.80021129  0.22383982  0.67879783     0.33700
H946        H  0.78134268  0.23026660  0.71663201     0.38200
H947        H  0.73554278  0.06976750  0.71348732     0.33700
H948        H  0.75068940  0.06812801  0.67341050     0.30400
H949        H  0.80658999  0.12261061  0.58140554     0.33700
H950        H  0.77505500  0.11630956  0.60983821     0.30400
H951        H  0.89572737  0.01191399  0.66760227     0.38300
H952        H  0.86188043  0.00935998  0.69347066     0.33800
C953        C  0.37715933  0.06983420  0.38843204    -0.20000
C954        C  0.36424141  0.06009019  0.35603441     0.36200
C955        C  0.33955484  0.08073801  0.34021048    -0.26000
C956        C  0.32750873  0.11084432  0.35583531     0.02700
C957        C  0.33894389  0.11957931  0.38910538     0.27500
C958        C  0.36378074  0.09891395  0.40495487    -0.25100
N959        N  0.37654391  0.03034500  0.33786174    -0.82500
H960        H  0.33035007  0.07372669  0.31495514     0.13300
C961        C  0.30309094  0.13218951  0.33629668     0.02600
N962        N  0.32632730  0.14912918  0.40732462    -0.81100
H963        H  0.37395274  0.10657931  0.42964220     0.18100
C964        C  0.26912408  0.12116093  0.33379323    -0.25900
C965        C  0.24605044  0.13769657  0.31197057     0.36100
C966        C  0.25702407  0.16560950  0.29177305    -0.19900
C967        C  0.29050325  0.17821802  0.29609299    -0.25200
C968        C  0.31396043  0.16129194  0.31778427     0.27500
H969        H  0.26065047  0.09907595  0.34835716     0.13300
N970        N  0.21125065  0.12618698  0.31067361    -0.82400
H971        H  0.29871347  0.20054646  0.28188754     0.18100
N972        N  0.34900861  0.17258052  0.32005327    -0.81000
H973        H  0.20083807  0.12825973  0.33522538     0.33700
H974        H  0.21128967  0.10022168  0.30375140     0.38200
H975        H  0.35308363  0.19370581  0.30409541     0.33700
H976        H  0.35325594  0.18114650  0.34504511     0.30400
H977        H  0.34686747  0.16609744  0.41064246     0.33700
H978        H  0.30757834  0.16220735  0.39340786     0.30400
H979        H  0.39438261  0.01652112  0.35224930     0.38300
H980        H  0.35564952  0.01389451  0.33416413     0.33800
C981        C  0.50068534  0.06762670  0.38141454    -0.20000
C982        C  0.50902647  0.05921305  0.34715264     0.36200
C983        C  0.53321783  0.07917407  0.32964987    -0.26000
C984        C  0.54926559  0.10734770  0.34540359     0.02700
C985        C  0.54197308  0.11495145  0.37988888     0.27500
C986        C  0.51758838  0.09506685  0.39754004    -0.25100
N987        N  0.49276091  0.03141073  0.32900928    -0.82500
H988        H  0.53908769  0.07304483  0.30323061     0.13300
C989        C  0.57427308  0.12798033  0.32548417     0.02600
N990        N  0.55899032  0.14311746  0.39660409    -0.81100
H991        H  0.51062766  0.10190392  0.42351053     0.18100
C992        C  0.56715418  0.16241397  0.31726626    -0.25900
C993        C  0.58971089  0.18175026  0.29657463     0.36100
C994        C  0.61994824  0.16616965  0.28391095    -0.19900
C995        C  0.62710444  0.13195479  0.29325562    -0.25200
C996        C  0.60479822  0.11284596  0.31377015     0.27500
H997        H  0.54357749  0.17394702  0.32645194     0.13300
N998        N  0.58161218  0.21670933  0.28799472    -0.82400
H999        H  0.65031767  0.11978126  0.28439063     0.18100
N1000       N  0.61299703  0.07799143  0.32279295    -0.81000
H1001       H  0.55851264  0.22417610  0.29939785     0.33700
H1002       H  0.57779514  0.21803268  0.26158644     0.38200
H1003       H  0.63633733  0.07051639  0.31187987     0.33700
H1004       H  0.61642119  0.07718341  0.34930431     0.30400
H1005       H  0.55058950  0.14546164  0.42188767     0.33700
H1006       H  0.58515896  0.13723360  0.39771649     0.30400
H1007       H  0.47580947  0.01789436  0.34463207     0.38300
H1008       H  0.51195100  0.01394793  0.32207496     0.33800
C1009       C  0.74492358  0.16860575  0.28707282    -0.20000
C1010       C  0.74474286  0.13260465  0.29071565     0.36200
C1011       C  0.77162122  0.11610816  0.30783392    -0.26000
C1012       C  0.79904117  0.13477173  0.32148884     0.02700
C1013       C  0.80039476  0.17072571  0.31667236     0.27500
C1014       C  0.77324850  0.18733162  0.29934863    -0.25100
N1015       N  0.71678905  0.11257669  0.27786068    -0.82500
H1016       H  0.77095640  0.08842113  0.31071266     0.13300
C1017       C  0.82689029  0.11537533  0.33862833     0.02600
N1018       N  0.82953998  0.19001976  0.32854439    -0.81100
H1019       H  0.77389418  0.21492437  0.29588192     0.18100
C1020       C  0.85070606  0.09798661  0.31817709    -0.25900
C1021       C  0.87640069  0.07761821  0.33285581     0.36100
C1022       C  0.87896704  0.07489291  0.36875752    -0.19900
C1023       C  0.85411386  0.09091515  0.38930632    -0.25200
C1024       C  0.82775046  0.11092061  0.37448447     0.27500
H1025       H  0.84917268  0.10005435  0.29057120     0.13300
N1026       N  0.89982912  0.05938595  0.31117089    -0.82400
H1027       H  0.85590967  0.08874038  0.41686958     0.18100
N1028       N  0.80143491  0.12591294  0.39551091    -0.81000
H1029       H  0.88555651  0.04310917  0.29528705     0.33700
H1030       H  0.91243854  0.07724458  0.29571951     0.38200
H1031       H  0.80529741  0.11945535  0.42117274     0.33700
H1032       H  0.80360778  0.15259338  0.39400899     0.30400
H1033       H  0.82676628  0.21598374  0.32231749     0.33700
H1034       H  0.83000209  0.18879641  0.35521277     0.30400
H1035       H  0.70623156  0.09900739  0.29834984     0.38300
H1036       H  0.72673871  0.09461402  0.26059418     0.33800
C1037       C  0.65422139  0.26161791  0.21654587    -0.20000
C1038       C  0.64655385  0.25783021  0.18104765     0.36200
C1039       C  0.62820536  0.28357842  0.16405083    -0.26000
C1040       C  0.61675451  0.31271046  0.18133502     0.02700
C1041       C  0.62357785  0.31658755  0.21651609     0.27500
C1042       C  0.64196419  0.29077607  0.23391544    -0.25100
N1043       N  0.65728548  0.22802505  0.16203079    -0.82500
H1044       H  0.62285565  0.28105619  0.13694288     0.13300
C1045       C  0.59912813  0.33965198  0.16142344     0.02600
N1046       N  0.61189360  0.34675177  0.23428547    -0.81100
H1047       H  0.64722465  0.29378634  0.26093549     0.18100
C1048       C  0.56313906  0.33944152  0.15960814    -0.25900
C1049       C  0.54512433  0.36488326  0.14152536     0.36100
C1050       C  0.56386065  0.39088339  0.12443800    -0.19900
C1051       C  0.59991107  0.38994794  0.12516285    -0.25200
C1052       C  0.61779415  0.36492669  0.14347540     0.27500
H1053       H  0.54889555  0.31977569  0.17309411     0.13300
N1054       N  0.50825336  0.36437544  0.14290255    -0.82400
H1055       H  0.61447354  0.40978896  0.11224086     0.18100
N1056       N  0.65472024  0.36639839  0.14353481    -0.81000
H1057       H  0.49997693  0.34212232  0.13033920     0.33700
H1058       H  0.49738228  0.38509803  0.13002153     0.38200
H1059       H  0.66191892  0.38937452  0.15545451     0.33700
H1060       H  0.66566674  0.34662291  0.15781746     0.30400
H1061       H  0.61875830  0.34559593  0.26011650     0.33700
H1062       H  0.62481379  0.36785962  0.22398035     0.30400
H1063       H  0.64504093  0.20649257  0.17200574     0.38300
H1064       H  0.64994799  0.22970509  0.13636394     0.36200
C1065       C  0.72877750  0.67180497  0.18393607    -0.20000
C1066       C  0.74288503  0.68799672  0.15500286     0.36200
C1067       C  0.76378824  0.66915058  0.13250791    -0.26000
C1068       C  0.77089286  0.63427280  0.13828438     0.02700
C1069       C  0.75811771  0.61830067  0.16785894     0.27500
C1070       C  0.73780221  0.63737324  0.19066226    -0.25100
N1071       N  0.73531268  0.72315703  0.14763207    -0.82500
H1072       H  0.77362190  0.68150397  0.10972340     0.13300
C1073       C  0.78818145  0.61398639  0.11117451     0.02600
N1074       N  0.76496869  0.58255716  0.17408328    -0.81100
H1075       H  0.72851211  0.62501875  0.21364281     0.18100
C1076       C  0.82072014  0.59941103  0.11675809    -0.25900
C1077       C  0.83763214  0.58084610  0.09063032     0.36100
C1078       C  0.82154945  0.57714932  0.05838465    -0.19900
C1079       C  0.78846116  0.59085592  0.05361878    -0.25200
C1080       C  0.77162437  0.60897702  0.07959933     0.27500
H1081       H  0.83309889  0.60303316  0.14133359     0.13300
N1082       N  0.87144576  0.56724233  0.09631047    -0.82400
H1083       H  0.77563111  0.58766315  0.02921074     0.18100
N1084       N  0.73772529  0.62255927  0.07403645    -0.81000
H1085       H  0.88024762  0.57396056  0.12069759     0.33700
H1086       H  0.86949756  0.54046171  0.09610194     0.38200
H1087       H  0.72921049  0.61695854  0.04928126     0.33700
H1088       H  0.72105495  0.60995344  0.09077799     0.30400
H1089       H  0.75375157  0.57475020  0.19706631     0.33700
H1090       H  0.75299822  0.56841200  0.15467731     0.30400
H1091       H  0.75850119  0.73661216  0.14646233     0.38300
H1092       H  0.72375356  0.72427365  0.12351135     0.33800
C1093       C  0.56707490  0.51422749  0.12202436    -0.20000
C1094       C  0.60329115  0.51489936  0.12428939     0.36200
C1095       C  0.61945270  0.54101434  0.14299797    -0.26000
C1096       C  0.60020706  0.56649666  0.15933439     0.02700
C1097       C  0.56413482  0.56672855  0.15617097     0.27500
C1098       C  0.54778140  0.54050114  0.13731477    -0.25100
N1099       N  0.62343592  0.48854098  0.10803230    -0.82500
H1100       H  0.64720652  0.54150961  0.14498977     0.13300
C1101       C  0.61873835  0.59378185  0.17799562     0.02600
N1102       N  0.54439031  0.59319574  0.17263414    -0.81100
H1103       H  0.52001453  0.53957384  0.13600372     0.18100
C1104       C  0.62405475  0.62506619  0.16152003    -0.25900
C1105       C  0.64396579  0.65074013  0.17673902     0.36100
C1106       C  0.65901942  0.64519855  0.20916134    -0.19900
C1107       C  0.65297202  0.61409109  0.22613611    -0.25200
C1108       C  0.63312776  0.58807026  0.21063301     0.27500
H1109       H  0.61305921  0.62939949  0.13640984     0.13300
N1110       N  0.64836493  0.68267622  0.15928593    -0.82400
H1111       H  0.66429145  0.60989536  0.25110771     0.18100
N1112       N  0.62784704  0.55578611  0.22755698    -0.81000
H1113       H  0.65982429  0.67765901  0.13562784     0.33700
H1114       H  0.62410146  0.69324216  0.15477131     0.38200
H1115       H  0.64032462  0.55560715  0.25124533     0.33700
H1116       H  0.60159078  0.55352715  0.23258368     0.30400
H1117       H  0.51821103  0.58966552  0.16787721     0.33700
H1118       H  0.54783480  0.59057511  0.19902622     0.30400
H1119       H  0.61957665  0.49059417  0.08165117     0.38300
H1120       H  0.64962031  0.49255391  0.11237864     0.33800
C1121       C  0.88908176  0.82326189  0.36602556    -0.20000
C1122       C  0.85922650  0.84122273  0.35614185     0.36200
C1123       C  0.83254352  0.82327524  0.33954523    -0.26000
C1124       C  0.83539348  0.78793746  0.33271221     0.02700
C1125       C  0.86485621  0.76993671  0.34314837     0.27500
C1126       C  0.89145009  0.78778863  0.35950045    -0.25100
N1127       N  0.85658950  0.87760247  0.36190126    -0.82500
H1128       H  0.80967018  0.83686373  0.33143052     0.13300
C1129       C  0.80749927  0.76971927  0.31451185     0.02600
N1130       N  0.86766243  0.73362250  0.33682605    -0.81100
H1131       H  0.91434193  0.77391628  0.36709129     0.18100
C1132       C  0.81359887  0.75784686  0.28106226    -0.25900
C1133       C  0.78867249  0.73880854  0.26313450     0.36100
C1134       C  0.75695478  0.73200962  0.27894380    -0.19900
C1135       C  0.75089059  0.74418811  0.31226948    -0.25200
C1136       C  0.77581760  0.76238339  0.33047197     0.27500
H1137       H  0.83811823  0.76314511  0.26912779     0.13300
N1138       N  0.79563228  0.72603439  0.22932222    -0.82400
H1139       H  0.72635353  0.73950736  0.32444931     0.18100
N1140       N  0.76804674  0.77246325  0.36504944    -0.81000
H1141       H  0.82022123  0.73326512  0.22145774     0.33700
H1142       H  0.79546050  0.69920118  0.23040342     0.38200
H1143       H  0.76405559  0.75002788  0.37915285     0.33700
H1144       H  0.78852471  0.78511125  0.37674768     0.30400
H1145       H  0.89113967  0.72424120  0.34581607     0.33700
H1146       H  0.84851979  0.72138820  0.35102349     0.30400
H1147       H  0.87540796  0.88954950  0.34705878     0.38300
H1148       H  0.83292609  0.88679930  0.35319466     0.33800
C1149       C  0.72246396  0.23289948  0.81647163    -0.20000
C1150       C  0.75706460  0.24366132  0.81377324     0.36200
C1151       C  0.77328637  0.25996135  0.84111441    -0.26000
C1152       C  0.75577333  0.26675364  0.87144691     0.02700
C1153       C  0.72104895  0.25670928  0.87460525     0.27500
C1154       C  0.70472519  0.23969468  0.84703807    -0.25100
N1155       N  0.77593897  0.24036277  0.78276392    -0.82500
H1156       H  0.79980557  0.26796366  0.83844055     0.13300
C1157       C  0.77483544  0.28423246  0.89937692     0.02600
N1158       N  0.70230163  0.26479122  0.90521202    -0.81100
H1159       H  0.67798386  0.23238897  0.84909238     0.18100
C1160       C  0.78259798  0.31940453  0.89611126    -0.25900
C1161       C  0.80172392  0.33698205  0.92137879     0.36100
C1162       C  0.81377112  0.31873944  0.95008305    -0.19900
C1163       C  0.80690544  0.28336094  0.95254851    -0.25200
C1164       C  0.78779445  0.26588708  0.92775099     0.27500
H1165       H  0.77324906  0.33323776  0.87395416     0.13300
N1166       N  0.80798093  0.37323249  0.91845859    -0.82400
H1167       H  0.81628581  0.26900344  0.97438047     0.18100
N1168       N  0.78282199  0.22952444  0.93206772    -0.81000
H1169       H  0.79746752  0.38269324  0.89573611     0.33700
H1170       H  0.79494711  0.38545270  0.93844053     0.38200
H1171       H  0.76800586  0.22596022  0.95405528     0.33700
H1172       H  0.76928516  0.21856660  0.91177095     0.30400
H1173       H  0.67682475  0.25664592  0.90297892     0.33700
H1174       H  0.71306298  0.25072851  0.92526183     0.30400
H1175       H  0.77805456  0.21427927  0.77681618     0.38300
H1176       H  0.76213610  0.25323532  0.76383084     0.33800
C1177       C  0.72441674  0.23083238  0.19661357    -0.20000
C1178       C  0.73971327  0.26290419  0.20439349     0.36200
C1179       C  0.76004913  0.27938921  0.17997678    -0.26000
C1180       C  0.76594760  0.26446567  0.14802123     0.02700
C1181       C  0.75321738  0.23116735  0.14106914     0.27500
C1182       C  0.73277593  0.21447176  0.16571536    -0.25100
N1183       N  0.73495190  0.27845411  0.23732818    -0.82500
H1184       H  0.77081695  0.30446730  0.18554436     0.13300
C1185       C  0.78417620  0.28513152  0.12193999     0.02600
N1186       N  0.75957113  0.21524480  0.10848840    -0.81100
H1187       H  0.72180236  0.18951963  0.16007126     0.18100
C1188       C  0.81730979  0.27520235  0.11194236    -0.25900
C1189       C  0.83558951  0.29369584  0.08720635     0.36100
C1190       C  0.82069678  0.32349795  0.07279815    -0.19900
C1191       C  0.78832081  0.33437117  0.08397525    -0.25200
C1192       C  0.76960007  0.31545909  0.10799150     0.27500
H1193       H  0.82886753  0.25247429  0.12303091     0.13300
N1194       N  0.86830954  0.28053967  0.07626890    -0.82400
H1195       H  0.77644381  0.35660646  0.07219893     0.18100
N1196       N  0.73561235  0.32727387  0.11651310    -0.81000
H1197       H  0.88466376  0.28077076  0.09748535     0.33700
H1198       H  0.87969485  0.29639359  0.05803780     0.38200
H1199       H  0.72113701  0.32749016  0.09397442     0.33700
H1200       H  0.72293126  0.31048256  0.13292116     0.30400
H1201       H  0.74698818  0.19157183  0.10692445     0.33700
H1202       H  0.78580034  0.20984441  0.10704601     0.30400
H1203       H  0.74770684  0.26285830  0.25496517     0.38300
H1204       H  0.74680353  0.30252355  0.23853671     0.33800
C1205       C  0.64862544  0.13932992  0.21480061    -0.20000
C1206       C  0.61345413  0.14139651  0.20455845     0.36200
C1207       C  0.59925928  0.11550275  0.18407360    -0.26000
C1208       C  0.61893749  0.08792910  0.17265345     0.02700
C1209       C  0.65403907  0.08622634  0.18115181     0.27500
C1210       C  0.66860668  0.11205884  0.20199689    -0.25100
N1211       N  0.59180932  0.16950446  0.21492030    -0.82500
H1212       H  0.57234812  0.11662019  0.17705986     0.13300
C1213       C  0.60133668  0.06041625  0.15320301     0.02600
N1214       N  0.67457828  0.05812775  0.16887561    -0.81100
H1215       H  0.69542061  0.11026734  0.20882892     0.18100
C1216       C  0.60402927  0.05984471  0.11740267    -0.25900
C1217       C  0.58655321  0.03516693  0.09769074     0.36100
C1218       C  0.56566009  0.01063006  0.11434925    -0.19900
C1219       C  0.56234242  0.01190178  0.15005144    -0.25200
C1220       C  0.57990656  0.03626817  0.16973395     0.27500
H1221       H  0.62009651  0.07860071  0.10469166     0.13300
N1222       N  0.59190328  0.03497970  0.06130852    -0.82400
H1223       H  0.54694990  0.99270855  0.16298677     0.18100
N1224       N  0.57572708  0.03522215  0.20630628    -0.81000
H1225       H  0.58238656  0.05815575  0.05171696     0.33700
H1226       H  0.57800134  0.01547391  0.04930982     0.38200
H1227       H  0.58495566  0.01148566  0.21476881     0.33700
H1228       H  0.59044284  0.05384029  0.21872575     0.30400
H1229       H  0.69996509  0.06073611  0.17718097     0.33700
H1230       H  0.66512139  0.03561814  0.17994343     0.30400
H1231       H  0.60083953  0.19195831  0.20359234     0.38300
H1232       H  0.56663074  0.16620049  0.20625260     0.33800
C1233       C  0.57549085  0.88784721  0.10578238    -0.20000
C1234       C  0.61138540  0.88433590  0.10085975     0.36200
C1235       C  0.63007942  0.86174069  0.12161913    -0.26000
C1236       C  0.61386739  0.84203133  0.14678534     0.02700
C1237       C  0.57789917  0.84396386  0.15045444     0.27500
C1238       C  0.55902560  0.86698804  0.12994628    -0.25100
N1239       N  0.62985232  0.90413647  0.07587783    -0.82500
H1240       H  0.65766316  0.85998937  0.11846327     0.13300
C1241       C  0.63480322  0.81885018  0.16857286     0.02600
N1242       N  0.56091342  0.82328834  0.17569454    -0.81100
H1243       H  0.53173853  0.87019471  0.13427305     0.18100
C1244       C  0.64033054  0.82679730  0.20327690    -0.25900
C1245       C  0.65802337  0.80399262  0.22498746     0.36100
C1246       C  0.66950280  0.77209285  0.21176081    -0.19900
C1247       C  0.66587427  0.76557315  0.17664393    -0.25200
C1248       C  0.64863746  0.78839904  0.15493594     0.27500
H1249       H  0.63054790  0.85072974  0.21359889     0.13300
N1250       N  0.66415263  0.81415155  0.25983079    -0.82400
H1251       H  0.67489170  0.74155159  0.16634842     0.18100
N1252       N  0.64346320  0.77983262  0.11949792    -0.81000
H1253       H  0.64042981  0.81655210  0.27204307     0.33700
H1254       H  0.67826853  0.79558972  0.27299716     0.38200
H1255       H  0.65359977  0.75555411  0.11402231     0.33700
H1256       H  0.65752988  0.79728943  0.10489104     0.30400
H1257       H  0.53449739  0.82802841  0.17549512     0.33700
H1258       H  0.56413864  0.79755794  0.16866192     0.30400
H1259       H  0.61326241  0.91890316  0.06093938     0.38300
H1260       H  0.64148906  0.88681328  0.05901077     0.33800
C1261       C  0.16555578  0.66230524  0.18760556    -0.20000
C1262       C  0.18034569  0.65115007  0.15666309     0.36200
C1263       C  0.15980388  0.63375357  0.13253621    -0.26000
C1264       C  0.12488992  0.62737793  0.13893626     0.02700
C1265       C  0.10998820  0.63922729  0.16951889     0.27500
C1266       C  0.13044389  0.65681362  0.19341389    -0.25100
N1267       N  0.21609355  0.65718607  0.15011830    -0.82500
H1268       H  0.17098722  0.62501880  0.10868821     0.13300
C1269       C  0.10379512  0.61008334  0.11242522     0.02600
N1270       N  0.07423696  0.63313202  0.17622634    -0.81100
H1271       H  0.11919567  0.66529616  0.21722707     0.18100
C1272       C  0.09240237  0.57618747  0.11722173    -0.25900
C1273       C  0.07395242  0.55873460  0.09135588     0.36100
C1274       C  0.06724357  0.57562134  0.06008401    -0.19900
C1275       C  0.07733126  0.61014439  0.05634599    -0.25200
C1276       C  0.09532892  0.62750960  0.08215871     0.27500
H1277       H  0.09859585  0.56314938  0.14089309     0.13300
N1278       N  0.06360785  0.52365730  0.09618241    -0.82400
H1279       H  0.07169121  0.62357545  0.03275270     0.18100
N1280       N  0.10554298  0.66270209  0.07762551    -0.81000
H1281       H  0.07217280  0.51460587  0.11985593     0.33700
H1282       H  0.03679803  0.52328864  0.09722734     0.38200
H1283       H  0.09761578  0.67177933  0.05374080     0.33700
H1284       H  0.09262554  0.67740733  0.09596164     0.30400
H1285       H  0.06736729  0.64313108  0.20010282     0.33700
H1286       H  0.06004982  0.64669210  0.15798743     0.30400
H1287       H  0.21949927  0.68375334  0.14828519     0.38300
H1288       H  0.22316074  0.64674933  0.12649110     0.33800
C1289       C  0.06805753  0.56612041  0.93658915    -0.20000
C1290       C  0.04716612  0.57928500  0.91019803     0.36200
C1291       C  0.06259959  0.59719700  0.88301432    -0.26000
C1292       C  0.09826888  0.60206228  0.88205303     0.02700
C1293       C  0.11921058  0.58729298  0.90739853     0.27500
C1294       C  0.10385486  0.56969167  0.93456810    -0.25100
N1295       N  0.01045214  0.57643868  0.91223381    -0.82500
H1296       H  0.04678610  0.60834236  0.86310013     0.13300
C1297       C  0.11374031  0.62296488  0.85466668     0.02600
N1298       N  0.15591812  0.59090350  0.90572582    -0.81100
H1299       H  0.11982714  0.55949930  0.95487660     0.18100
C1300       C  0.12872454  0.65478364  0.86289777    -0.25900
C1301       C  0.14695687  0.67349633  0.83822372     0.36100
C1302       C  0.15038972  0.66001573  0.80507602    -0.19900
C1303       C  0.13377077  0.62912375  0.79649373    -0.25200
C1304       C  0.11573987  0.61026503  0.82104450     0.27500
H1305       H  0.12714017  0.66454059  0.88883159     0.13300
N1306       N  0.16354639  0.70502910  0.84735054    -0.82400
H1307       H  0.13608751  0.61896852  0.77081428     0.18100
N1308       N  0.10049776  0.57776231  0.81232083    -0.81000
H1309       H  0.18057533  0.70002512  0.86741427     0.33700
H1310       H  0.14479738  0.72201461  0.85633240     0.38200
H1311       H  0.10418651  0.57224123  0.78639406     0.33700
H1312       H  0.11352116  0.55872562  0.82599658     0.30400
H1313       H  0.16759916  0.57879200  0.92654836     0.33700
H1314       H  0.16434567  0.57799088  0.88379379     0.30400
H1315       H  0.00422603  0.55043642  0.90978899     0.38300
H1316       H  0.99886913  0.58893925  0.89157522     0.33800
C1317       C  0.81365257  0.57277361  0.55633237    -0.20000
C1318       C  0.81731690  0.60835922  0.56221178     0.36200
C1319       C  0.79943076  0.62393031  0.58925977    -0.26000
C1320       C  0.77762010  0.60474621  0.61028800     0.02700
C1321       C  0.77441992  0.56903709  0.60502898     0.27500
C1322       C  0.79262470  0.55327602  0.57801970    -0.25100
N1323       N  0.83874603  0.62861854  0.54016634    -0.82500
H1324       H  0.80212757  0.65128708  0.59377615     0.13300
C1325       C  0.75961203  0.62272470  0.63848964     0.02600
N1326       N  0.75229672  0.54918092  0.62671201    -0.81100
H1327       H  0.78936092  0.52608006  0.57301958     0.18100
C1328       C  0.72508649  0.63254335  0.63479195    -0.25900
C1329       C  0.70896927  0.65336498  0.65957261     0.36100
C1330       C  0.72764822  0.66447205  0.68840890    -0.19900
C1331       C  0.76177603  0.65330400  0.69250494    -0.25200
C1332       C  0.77795357  0.63282787  0.66780709     0.27500
H1333       H  0.71099540  0.62496043  0.61208911     0.13300
N1334       N  0.67423303  0.66430990  0.65464682    -0.82400
H1335       H  0.77612004  0.66088238  0.71502049     0.18100
N1336       N  0.81323178  0.62278109  0.67195422    -0.81000
H1337       H  0.65883218  0.64240828  0.65264895     0.33700
H1338       H  0.67283907  0.67754416  0.63145271     0.38200
H1339       H  0.82328817  0.63276432  0.69470997     0.33700
H1340       H  0.81383959  0.59603697  0.67425966     0.30400
H1341       H  0.75252473  0.52336689  0.61926512     0.33700
H1342       H  0.76241983  0.55011950  0.65147679     0.30400
H1343       H  0.86398389  0.61998528  0.54321294     0.38300
H1344       H  0.83845506  0.65440567  0.54770649     0.33800
C1345       C  0.81277875  0.57350499  0.43249075    -0.20000
C1346       C  0.79758173  0.55382718  0.40611776     0.36200
C1347       C  0.77959112  0.57069975  0.37958138    -0.26000
C1348       C  0.77656576  0.60668545  0.37916885     0.02700
C1349       C  0.79250051  0.62611652  0.40499641     0.27500
C1350       C  0.81028822  0.60950158  0.43135802    -0.25100
N1351       N  0.79870829  0.51695761  0.40742931    -0.82500
H1352       H  0.76734312  0.55581052  0.35955560     0.13300
C1353       C  0.75692485  0.62429814  0.35173137     0.02600
N1354       N  0.79037646  0.66285806  0.40459825    -0.81100
H1355       H  0.82163849  0.62487215  0.45158099     0.18100
C1356       C  0.72423762  0.63781383  0.35888224    -0.25900
C1357       C  0.70687943  0.65857708  0.33494591     0.36100
C1358       C  0.72250526  0.66630339  0.30344762    -0.19900
C1359       C  0.75451607  0.65116713  0.29581847    -0.25200
C1360       C  0.77188891  0.63075193  0.31961304     0.27500
H1361       H  0.71260944  0.63307325  0.38358570     0.13300
N1362       N  0.67410895  0.67276707  0.34335494    -0.82400
H1363       H  0.76666621  0.65606005  0.27139940     0.18100
N1364       N  0.80528873  0.61797255  0.31104861    -0.81000
H1365       H  0.67682138  0.68732491  0.36570475     0.33700
H1366       H  0.65736853  0.65245709  0.34852166     0.38200
H1367       H  0.80483457  0.59118891  0.31267410     0.33700
H1368       H  0.82285259  0.62732299  0.32905424     0.30400
H1369       H  0.77892530  0.67088665  0.42743435     0.33700
H1370       H  0.81534750  0.67265685  0.40396765     0.30400
H1371       H  0.82425760  0.50948865  0.40410581     0.38300
H1372       H  0.78497617  0.50637756  0.38696571     0.33800
C1373       C  0.23471721  0.75248860  0.21740324    -0.20000
C1374       C  0.26553243  0.74612031  0.19921371     0.36200
C1375       C  0.28014565  0.77193435  0.17929131    -0.26000
C1376       C  0.26482552  0.80425468  0.17655040     0.02700
C1377       C  0.23350242  0.81074798  0.19384532     0.27500
C1378       C  0.21872749  0.78463712  0.21381813    -0.25100
N1379       N  0.28202456  0.71332538  0.19922934    -0.82500
H1380       H  0.30389990  0.76673022  0.16581072     0.13300
C1381       C  0.28319994  0.83078442  0.15658551     0.02600
N1382       N  0.21640781  0.84346150  0.19235767    -0.81100
H1383       H  0.19490610  0.78971459  0.22720776     0.18100
C1384       C  0.27514596  0.83581266  0.12196858    -0.25900
C1385       C  0.29219480  0.86083870  0.10246042     0.36100
C1386       C  0.31802452  0.88113207  0.11810983    -0.19900
C1387       C  0.32672715  0.87512465  0.15243868    -0.25200
C1388       C  0.30963024  0.85013076  0.17181952     0.27500
H1389       H  0.25503879  0.82057885  0.11021468     0.13300
N1390       N  0.28146552  0.86590735  0.06763101    -0.82400
H1391       H  0.34599091  0.89113771  0.16459738     0.18100
N1392       N  0.31861233  0.84458685  0.20706015    -0.81000
H1393       H  0.28651868  0.84316154  0.05426814     0.33700
H1394       H  0.29575903  0.88507857  0.05568541     0.38200
H1395       H  0.33879781  0.86073842  0.21433594     0.33700
H1396       H  0.29746486  0.85157453  0.22197444     0.30400
H1397       H  0.19262788  0.83961165  0.18053132     0.33700
H1398       H  0.22979492  0.86096936  0.17724953     0.30400
H1399       H  0.26418999  0.69493511  0.19133534     0.38300
H1400       H  0.29047131  0.70786733  0.22393378     0.33800
C1401       C  0.31759622  0.00474703  0.12422602    -0.20000
C1402       C  0.31514497  0.00447941  0.16031181     0.36200
C1403       C  0.29647801  0.03025853  0.17718418    -0.26000
C1404       C  0.28034834  0.05664854  0.15899007     0.02700
C1405       C  0.28377692  0.05775527  0.12282348     0.27500
C1406       C  0.30259660  0.03184635  0.10593435    -0.25100
N1407       N  0.33142894  0.97764727  0.17969404    -0.82500
H1408       H  0.29455163  0.02987584  0.20483840     0.13300
C1409       C  0.26221944  0.08358157  0.17908702     0.02600
N1410       N  0.26793527  0.08405679  0.10239606    -0.81100
H1411       H  0.30400418  0.03196614  0.07825479     0.18100
C1412       C  0.27751264  0.11581297  0.18235851    -0.25900
C1413       C  0.26307194  0.14128649  0.20301996     0.36100
C1414       C  0.23280744  0.13450431  0.22217628    -0.19900
C1415       C  0.21690832  0.10236120  0.21801122    -0.25200
C1416       C  0.23132816  0.07681045  0.19666574     0.27500
H1417       H  0.30101980  0.12127531  0.16859001     0.13300
N1418       N  0.27905606  0.17427318  0.20247214    -0.82400
H1419       H  0.19316348  0.09714330  0.23125802     0.18100
N1420       N  0.21471599  0.04410762  0.19258522    -0.81000
H1421       H  0.28871417  0.17960019  0.22669148     0.33700
H1422       H  0.26064895  0.19250627  0.19567119     0.38200
H1423       H  0.19222059  0.04318767  0.20710960     0.33700
H1424       H  0.20726851  0.04192273  0.16696562     0.30400
H1425       H  0.25027798  0.07205448  0.08613489     0.33700
H1426       H  0.25381412  0.10121125  0.11732644     0.30400
H1427       H  0.35791438  0.97985050  0.17600405     0.38300
H1428       H  0.32705222  0.98097542  0.20586999     0.33800
C1429       C  0.15207841  0.22616865  0.81118110    -0.20000
C1430       C  0.13941959  0.26004515  0.80729561     0.36200
C1431       C  0.12157583  0.27595559  0.83402672    -0.26000
C1432       C  0.11540037  0.25873646  0.86466665     0.02700
C1433       C  0.12566276  0.22408220  0.86802154     0.27500
C1434       C  0.14349148  0.20796833  0.84095257    -0.25100
N1435       N  0.14385789  0.27833076  0.77589411    -0.82500
H1436       H  0.11294970  0.30226028  0.83101355     0.13300
C1437       C  0.09949103  0.27822719  0.89318748     0.02600
N1438       N  0.11741298  0.20526301  0.89851881    -0.81100
H1439       H  0.15131961  0.18150626  0.84359873     0.18100
C1440       C  0.06491360  0.28830697  0.89111423    -0.25900
C1441       C  0.04943451  0.30768752  0.91748313     0.36100
C1442       C  0.06906359  0.31692574  0.94646991    -0.19900
C1443       C  0.10399835  0.30775774  0.94769753    -0.25200
C1444       C  0.11947978  0.28895668  0.92123492     0.27500
H1445       H  0.04994057  0.28072409  0.86897846     0.13300
N1446       N  0.01367325  0.31652149  0.91557954    -0.82400
H1447       H  0.11930978  0.31509638  0.96969507     0.18100
N1448       N  0.15542712  0.28061380  0.92272644    -0.81000
H1449       H  0.00262402  0.30617904  0.89345398     0.33700
H1450       H  0.01207696  0.34320325  0.91308372     0.38200
H1451       H  0.16642835  0.29011600  0.94524866     0.33700
H1452       H  0.16756249  0.29323223  0.90250386     0.30400
H1453       H  0.12568083  0.17979361  0.89637209     0.33700
H1454       H  0.13125280  0.21600404  0.91878517     0.30400
H1455       H  0.11951513  0.28478388  0.76663882     0.38300
H1456       H  0.15660191  0.30131659  0.78138491     0.33800
C1457       C  0.16685110  0.22409287  0.18902364    -0.20000
C1458       C  0.18117936  0.23695916  0.15858272     0.36200
C1459       C  0.16006934  0.25531798  0.13571128    -0.26000
C1460       C  0.12487525  0.25975548  0.14237691     0.02700
C1461       C  0.11016451  0.24416250  0.17126474     0.27500
C1462       C  0.13125716  0.22608626  0.19398043    -0.25100
N1463       N  0.21695012  0.23182324  0.15139491    -0.82500
H1464       H  0.17101569  0.26636361  0.11277528     0.13300
C1465       C  0.10340655  0.28011014  0.11859177     0.02600
N1466       N  0.07403128  0.24761256  0.17790451    -0.81100
H1467       H  0.12001778  0.21487996  0.21657018     0.18100
C1468       C  0.07841620  0.26324909  0.09903810    -0.25900
C1469       C  0.05922499  0.28113873  0.07458206     0.36100
C1470       C  0.06463391  0.31655838  0.06977145    -0.19900
C1471       C  0.08829113  0.33393980  0.09062657    -0.25200
C1472       C  0.10774607  0.31594821  0.11521864     0.27500
H1473       H  0.07466511  0.23581759  0.10192024     0.13300
N1474       N  0.03505204  0.26303753  0.05359240    -0.82400
H1475       H  0.09292516  0.36104773  0.08642762     0.18100
N1476       N  0.13242415  0.33361445  0.13619941    -0.81000
H1477       H  0.01700892  0.25147647  0.06964133     0.33700
H1478       H  0.04818954  0.24357509  0.04057858     0.38200
H1479       H  0.13262898  0.35983630  0.13046908     0.33700
H1480       H  0.12436898  0.33148676  0.16160568     0.30400
H1481       H  0.06728707  0.23449011  0.20021351     0.33700
H1482       H  0.06905199  0.27361586  0.18248268     0.30400
H1483       H  0.22085388  0.20540073  0.14857416     0.38300
H1484       H  0.22337825  0.24300226  0.12799408     0.33800
C1485       C  0.32736643  0.37713190  0.87025563    -0.20000
C1486       C  0.33551691  0.36653657  0.83659077     0.36200
C1487       C  0.31543783  0.34122060  0.82066759    -0.26000
C1488       C  0.28693349  0.32673931  0.83717745     0.02700
C1489       C  0.27949508  0.33667368  0.87137043     0.27500
C1490       C  0.30037615  0.36111539  0.88759315    -0.25100
N1491       N  0.36300180  0.38183385  0.81737832    -0.82500
H1492       H  0.32156215  0.33346702  0.79473422     0.13300
C1493       C  0.26541532  0.30159691  0.81812367     0.02600
N1494       N  0.25007649  0.32422135  0.88984358    -0.81100
H1495       H  0.29349276  0.36992288  0.91301357     0.18100
C1496       C  0.26283673  0.26802686  0.83045802    -0.25900
C1497       C  0.24117797  0.24412041  0.81487854     0.36100
C1498       C  0.22188086  0.25340537  0.78550231    -0.19900
C1499       C  0.22639316  0.28629139  0.77164602    -0.25200
C1500       C  0.24745027  0.31077804  0.78806689     0.27500
H1501       H  0.27733453  0.26054482  0.85292930     0.13300
N1502       N  0.24026149  0.21031914  0.82904903    -0.82400
H1503       H  0.21277583  0.29311405  0.74845160     0.18100
N1504       N  0.25043536  0.34495151  0.77457736    -0.81000
H1505       H  0.21568569  0.20572918  0.83843713     0.33700
H1506       H  0.24610678  0.19264677  0.80978277     0.38200
H1507       H  0.23572703  0.34749762  0.75233887     0.33700
H1508       H  0.23998827  0.36185577  0.79259449     0.30400
H1509       H  0.23479250  0.34544151  0.89599299     0.33700
H1510       H  0.23456762  0.30840433  0.87486385     0.30400
H1511       H  0.37657033  0.39969557  0.83205821     0.38300
H1512       H  0.38047316  0.36233193  0.81139563     0.33800
C1513       C  0.31246389  0.49985350  0.86864513    -0.20000
C1514       C  0.32883136  0.52970139  0.85656119     0.36200
C1515       C  0.30948875  0.55420367  0.83831940    -0.26000
C1516       C  0.27429958  0.54922840  0.83197083     0.02700
C1517       C  0.25772143  0.51985562  0.84519005     0.27500
C1518       C  0.27708573  0.49550756  0.86298162    -0.25100
N1519       N  0.36500464  0.53452846  0.86192170    -0.82500
H1520       H  0.32185247  0.57720240  0.82880310     0.13300
C1521       C  0.25485589  0.57633132  0.81394635     0.02600
N1522       N  0.22150726  0.51372538  0.84105334    -0.81100
H1523       H  0.26431866  0.47259904  0.87223649     0.18100
C1524       C  0.24687261  0.57222957  0.77907862    -0.25900
C1525       C  0.22731183  0.59701388  0.76146680     0.36100
C1526       C  0.21566394  0.62650326  0.77889764    -0.19900
C1527       C  0.22323851  0.62970780  0.81405704    -0.25200
C1528       C  0.24259684  0.60539898  0.83166209     0.27500
H1529       H  0.25552946  0.54946381  0.76560716     0.13300
N1530       N  0.21837300  0.59140992  0.72639762    -0.82400
H1531       H  0.21429392  0.65160001  0.82851215     0.18100
N1532       N  0.24858507  0.61097212  0.86759636    -0.81000
H1533       H  0.20473190  0.56833362  0.72474737     0.33700
H1534       H  0.24106361  0.58861955  0.71242562     0.38200
H1535       H  0.26367330  0.63304767  0.87006901     0.33700
H1536       H  0.26229418  0.59094442  0.87884815     0.30400
H1537       H  0.21046634  0.51380213  0.86542052     0.33700
H1538       H  0.20940435  0.53323241  0.82734125     0.30400
H1539       H  0.37787585  0.51525364  0.84837458     0.38300
H1540       H  0.37297580  0.55792741  0.85153905     0.33800
C1541       C  0.38504709  0.79851631  0.39770060    -0.20000
C1542       C  0.39114597  0.76649312  0.38145836     0.36200
C1543       C  0.36475551  0.75001156  0.36361766    -0.26000
C1544       C  0.33140013  0.76343982  0.36307809     0.02700
C1545       C  0.32391440  0.79204046  0.38466737     0.27500
C1546       C  0.35105574  0.81003959  0.40058873    -0.25100
N1547       N  0.42461324  0.75112446  0.38182990    -0.82500
H1548       H  0.37107230  0.72745025  0.34860937     0.13300
C1549       C  0.30653414  0.74886226  0.33754306     0.02600
N1550       N  0.28940456  0.80367602  0.39068062    -0.81100
H1551       H  0.34561191  0.83373549  0.41412740     0.18100
C1552       C  0.30437040  0.71311633  0.33254520    -0.25900
C1553       C  0.28370473  0.69876548  0.30660356     0.36100
C1554       C  0.26233722  0.72012961  0.28643091    -0.19900
C1555       C  0.26561405  0.75597432  0.29098288    -0.25200
C1556       C  0.28814449  0.77030088  0.31507028     0.27500
H1557       H  0.31946058  0.69603325  0.34841343     0.13300
N1558       N  0.28591537  0.66263572  0.30017137    -0.82400
H1559       H  0.25040786  0.77372240  0.27632109     0.18100
N1560       N  0.29279872  0.80680829  0.31594675    -0.81000
H1561       H  0.31134989  0.65673976  0.29399192     0.33700
H1562       H  0.27976411  0.64972182  0.32277273     0.38200
H1563       H  0.30144670  0.81463906  0.29189504     0.33700
H1564       H  0.26887788  0.81823942  0.32021431     0.30400
H1565       H  0.27163304  0.78648339  0.38032416     0.33700
H1566       H  0.28523912  0.80297469  0.41708391     0.30400
H1567       H  0.42252219  0.72674133  0.39276947     0.38300
H1568       H  0.43277288  0.74802151  0.35652876     0.33800
C1569       C  0.49911609  0.83052154  0.36407025    -0.20000
C1570       C  0.49226128  0.81201803  0.33342416     0.36200
C1571       C  0.51905466  0.79562368  0.31608035    -0.26000
C1572       C  0.55328588  0.79959635  0.32627663     0.02700
C1573       C  0.56056096  0.82257989  0.35355553     0.27500
C1574       C  0.53345062  0.83699640  0.37288199    -0.25100
N1575       N  0.45784389  0.80931711  0.32022765    -0.82500
H1576       H  0.51285958  0.77900486  0.29469928     0.13300
C1577       C  0.58025651  0.77924452  0.30774863     0.02600
N1578       N  0.59526323  0.83177011  0.36143036    -0.81100
H1579       H  0.53931561  0.85234041  0.39528801     0.18100
C1580       C  0.57802122  0.77522139  0.27190457    -0.25900
C1581       C  0.60077844  0.75390624  0.25380061     0.36100
C1582       C  0.62891152  0.73905977  0.27123539    -0.19900
C1583       C  0.63061538  0.74211756  0.30691282    -0.25200
C1584       C  0.60592274  0.76071101  0.32535896     0.27500
H1585       H  0.55799307  0.78823510  0.25771556     0.13300
N1586       N  0.59457791  0.74803928  0.21800486    -0.82400
H1587       H  0.65177940  0.73061664  0.32062493     0.18100
N1588       N  0.60654248  0.75970074  0.36195906    -0.81000
H1589       H  0.57002584  0.73746685  0.21562424     0.33700
H1590       H  0.61122639  0.72932071  0.20848370     0.38200
H1591       H  0.60414405  0.73406433  0.36952343     0.33700
H1592       H  0.63055444  0.76845976  0.37016622     0.30400
H1593       H  0.59762007  0.85836657  0.35864685     0.33700
H1594       H  0.59983834  0.82591987  0.38712382     0.30400
H1595       H  0.44982146  0.83406033  0.31359836     0.38300
H1596       H  0.45719170  0.79465786  0.29779243     0.33800
C1597       C  0.80433481  0.33840545  0.56434241    -0.20000
C1598       C  0.76896961  0.34264153  0.57053221     0.36200
C1599       C  0.75342647  0.32514227  0.59759051    -0.26000
C1600       C  0.77260695  0.30296408  0.61818816     0.02700
C1601       C  0.80838493  0.30011537  0.61343168     0.27500
C1602       C  0.82408403  0.31818228  0.58652021    -0.25100
N1603       N  0.74858211  0.36382804  0.54852156    -0.82500
H1604       H  0.72597372  0.32748786  0.60143475     0.13300
C1605       C  0.75430796  0.28052844  0.64238976     0.02600
N1606       N  0.82819688  0.27778127  0.63501448    -0.81100
H1607       H  0.85119894  0.31465486  0.58144327     0.18100
C1608       C  0.74848746  0.24621482  0.63324485    -0.25900
C1609       C  0.73189399  0.22364565  0.65569049     0.36100
C1610       C  0.72066967  0.23574337  0.68785420    -0.19900
C1611       C  0.72490831  0.27069473  0.69602446    -0.25200
C1612       C  0.74198824  0.29315153  0.67375484     0.27500
H1613       H  0.75745432  0.23674574  0.60873653     0.13300
N1614       N  0.72722383  0.18857411  0.64575766    -0.82400
H1615       H  0.71632836  0.28016676  0.72061966     0.18100
N1616       N  0.74740218  0.32849550  0.68302452    -0.81000
H1617       H  0.75122949  0.17819538  0.63984811     0.33700
H1618       H  0.71284927  0.18832956  0.62315923     0.38200
H1619       H  0.73664104  0.33370838  0.70696609     0.33700
H1620       H  0.77386420  0.33226247  0.68553069     0.30400
H1621       H  0.85405266  0.27823448  0.62790073     0.33700
H1622       H  0.82696410  0.28758655  0.65990537     0.30400
H1623       H  0.72922125  0.34858700  0.53784998     0.38300
H1624       H  0.73692601  0.38279503  0.56351410     0.33800
C1625       C  0.79601731  0.33269571  0.44127783    -0.20000
C1626       C  0.81247278  0.32196711  0.41088314     0.36200
C1627       C  0.79376328  0.30277066  0.38648617    -0.26000
C1628       C  0.75929881  0.29388856  0.39222155     0.02700
C1629       C  0.74240531  0.30617485  0.42147300     0.27500
C1630       C  0.76080732  0.32552671  0.44554007    -0.25100
N1631       N  0.84817069  0.32936538  0.40540583    -0.82500
H1632       H  0.80631159  0.29376419  0.36342506     0.13300
C1633       C  0.74066603  0.27222500  0.36719546     0.02600
N1634       N  0.70676700  0.29828371  0.42691350    -0.81100
H1635       H  0.74769961  0.33420971  0.46841474     0.18100
C1636       C  0.73524048  0.23718779  0.37399650    -0.25900
C1637       C  0.71787481  0.21604224  0.35027753     0.36100
C1638       C  0.70614504  0.23036910  0.31930343    -0.19900
C1639       C  0.70894670  0.26594522  0.31430339    -0.25200
C1640       C  0.72681156  0.28687728  0.33744445     0.27500
H1641       H  0.74496959  0.22633206  0.39758709     0.13300
N1642       N  0.71247037  0.18023013  0.35723172    -0.82400
H1643       H  0.69836883  0.27734936  0.29147448     0.18100
N1644       N  0.73158008  0.32282910  0.33056016    -0.81000
H1645       H  0.72271107  0.17373178  0.38108057     0.33700
H1646       H  0.68598147  0.17616546  0.35866061     0.38200
H1647       H  0.72043420  0.32943634  0.30713608     0.33700
H1648       H  0.71843816  0.33665977  0.34938773     0.30400
H1649       H  0.69822076  0.30885026  0.44999792     0.33700
H1650       H  0.69267102  0.31020563  0.40751124     0.30400
H1651       H  0.86224424  0.31570867  0.42365081     0.38300
H1652       H  0.85603621  0.32020204  0.38150306     0.33800
loop_ 
_geom_bond_atom_site_label_1 
_geom_bond_atom_site_label_2 
_geom_bond_distance 
_geom_bond_site_symmetry_2 
_ccdc_geom_bond_type 
C1            N2   1.351       .  A
C1            N6   1.366       .  A
C1         C1625   1.488       .  S
N2            C3   1.347       .  A
C3            N4   1.355       .  A
C3         C1597   1.469       .  S
N4            C5   1.364       .  A
C5            N6   1.370       .  A
C5          C305   1.477       .  S
C7            N8   1.364       .  A
C7           N12   1.343       .  A
C7         C1541   1.491       .  S
N8            C9   1.374       .  A
C9           N10   1.375       .  A
C9          C292   1.489       .  S
N10          C11   1.366       .  A
C11          N12   1.344       .  A
C11        C1569   1.494       .  S
C13          N14   1.365       .  A
C13          N18   1.351       .  A
C13        C1513   1.478       .  S
N14          C15   1.368       .  A
C15          N16   1.366       .  A
C15         C277   1.481       .  S
N16          C17   1.358       .  A
C17          N18   1.347       .  A
C17        C1485   1.469       .  S
C19          N20   1.363       .  A
C19          N24   1.350   1_556  A
C19        C1442   1.485       .  S
N20          C21   1.368   1_556  A
C21          N22   1.367       .  A
C21          C54   1.483   1_455  S
N22          C23   1.362       .  A
C23          N24   1.349       .  A
C23        C1470   1.472       .  S
C25          N26   1.366       .  A
C25          N30   1.350       .  A
C25        C1401   1.483   1_565  S
N26          C27   1.371       .  A
C27          N28   1.367       .  A
C27          C76   1.486       .  S
N28          C29   1.361       .  A
C29          N30   1.348       .  A
C29        C1386   1.474       .  S
C31          N32   1.365       .  A
C31          N36   1.353       .  A
C31        C1345   1.482       .  S
N32          C33   1.368       .  A
C33          N34   1.367       .  A
C33         C308   1.486       .  S
N34          C35   1.361       .  A
C35          N36   1.351       .  A
C35        C1317   1.477       .  S
C37          N38   1.358       .  A
C37          N42   1.350       .  A
C37        C1289   1.473       .  S
N38          C39   1.364   1_556  A
C39          N40   1.367       .  A
C39          C56   1.476   1_455  S
N40          C41   1.363       .  A
C41          N42   1.352   1_554  A
C41        C1274   1.487       .  S
O43          V51   1.904       .  S
O43          C53   1.265   1_556  A
O44          V51   1.908       .  S
O44          C54   1.266   1_556  A
O45          V51   1.913       .  S
O45          C55   1.266   1_556  A
O46          V51   1.906       .  S
O46          C56   1.266   1_556  A
O47          V52   1.907       .  S
O47          C56   1.265       .  A
O48          V52   1.906       .  S
O48          C55   1.266       .  A
O49          V52   1.913       .  S
O49          C54   1.267       .  A
O50          V52   1.911       .  S
O50          C53   1.266       .  A
V51          V52   2.087   1_556  T
C53         C263   1.478       .  S
C55          C81   1.482       .  S
C57          N58   1.348       .  A
C57          N62   1.362       .  A
C57        C1218   1.472   1_565  S
N58          C59   1.348       .  A
C59          N60   1.364       .  A
C59        C1233   1.475       .  S
N60          C61   1.369       .  A
C61          N62   1.367       .  A
C61          C73   1.484       .  S
O63          V71   1.910   1_554  S
O63          C73   1.266       .  A
O64          V71   1.905       .  S
O64          C74   1.266       .  A
O65          V71   1.915       .  S
O65          C75   1.267       .  A
O66          V71   1.914   1_554  S
O66          C76   1.268       .  A
O67          V72   1.912   1_554  S
O67          C76   1.266       .  A
O68          V72   1.909       .  S
O68          C75   1.267       .  A
O69          V72   1.914       .  S
O69          C74   1.266       .  A
O70          V72   1.913   1_554  S
O70          C73   1.268       .  A
V71          V72   2.086       .  T
C74         C143   1.481       .  S
C75         C241   1.484       .  S
C77          N78   1.350   1_556  A
C77          N82   1.366       .  A
C77        C1162   1.483       .  S
N78          C79   1.346       .  A
C79          N80   1.358       .  A
C79        C1190   1.467       .  S
N80          C81   1.365       .  A
C81          N82   1.370   1_554  A
C83          H84   1.110       .  S
C83          C89   1.535       .  S
C83          C88   1.544       .  S
C83          C87   1.546       .  S
C85          H86   1.108       .  S
C85          C91   1.532       .  S
C85          C90   1.538       .  S
C85          C92   1.542       .  S
C87          C90   1.378       .  D
C87        C1582   1.489       .  S
C88          C91   1.372       .  D
C88        C1358   1.501       .  S
C89          C92   1.375       .  D
C89        C1106   1.488       .  S
C90        C1246   1.493       .  S
C91        C1134   1.486       .  S
C92        C1065   1.497       .  S
C93          N94   1.347       .  A
C93          N98   1.360       .  A
C93        C1050   1.476       .  S
N94          C95   1.348       .  A
C95          N96   1.363       .  A
C95        C1093   1.473       .  S
N96          C97   1.367       .  A
C97          N98   1.367       .  A
C97         C278   1.478       .  S
C99         H100   1.109       .  S
C99         C105   1.546       .  S
C99         C104   1.558       .  S
C99         C103   1.529       .  S
C101        H102   1.108       .  S
C101        C107   1.535       .  S
C101        C106   1.554       .  S
C101        C108   1.540       .  S
C103        C106   1.370       .  D
C103       C1177   1.496       .  S
C104        C107   1.374       .  D
C104       C1205   1.509       .  S
C105        C108   1.381       .  D
C105       C1009   1.490       .  S
C106       C1037   1.499       .  S
C107        C994   1.506       .  S
C108       C1638   1.490       .  S
C109        N110   1.350       .  A
C109        N114   1.358       .  A
C109        C953   1.465       .  S
N110        C111   1.350       .  A
C111        N112   1.362       .  A
C111        C981   1.472       .  S
N112        C113   1.367       .  A
C113        N114   1.363       .  A
C113        C293   1.477   1_545  S
C115        N116   1.351       .  A
C115        N120   1.365       .  A
C115        C910   1.487       .  S
N116        C117   1.347       .  A
C117        N118   1.358       .  A
C117        C925   1.470       .  S
N118        C119   1.366       .  A
C119        N120   1.369       .  A
C119        C132   1.479   1_545  S
O121        V129   1.906       .  S
O121        C131   1.265       .  A
O122        V129   1.903       .  S
O122        C132   1.265       .  A
O123        V129   1.917       .  S
O123        C133   1.268       .  A
O124        V129   1.914       .  S
O124        C134   1.268       .  A
O125        V130   1.903       .  S
O125        C134   1.265       .  A
O126        V130   1.904       .  S
O126        C133   1.265       .  A
O127        V130   1.913       .  S
O127        C132   1.267       .  A
O128        V130   1.910       .  S
O128        C131   1.267       .  A
V129        V130   2.086       .  T
C131        C209   1.479       .  S
C133        C247   1.483   1_565  S
C134        C235   1.480       .  S
C135        N136   1.347       .  A
C135        N140   1.355       .  A
C135        C882   1.472       .  S
N136        C137   1.354       .  A
C137        N138   1.372       .  A
C137        C854   1.494       .  S
N138        C139   1.374       .  A
C139        N140   1.365       .  A
C139        C307   1.488   1_455  S
C141        N142   1.358       .  A
C141        N146   1.345       .  A
C141        C785   1.467       .  S
N142        C143   1.366       .  A
C143        N144   1.371       .  A
N144        C145   1.366       .  A
C145        N146   1.348       .  A
C145        C813   1.483   1_565  S
C147        H148   1.108       .  S
C147        C153   1.551       .  S
C147        C152   1.546       .  S
C147        C151   1.540       .  S
C149        H150   1.109       .  S
C149        C155   1.552       .  S
C149        C154   1.547       .  S
C149        C156   1.531       .  S
C151        C154   1.377       .  D
C151        C826   1.494       .  S
C152        C155   1.378       .  D
C152        C897   1.514       .  S
C153        C156   1.373       .  D
C153       C1429   1.498       .  S
C154        C757   1.492       .  S
C155        C869   1.505       .  S
C156       C1498   1.493       .  S
C157        N158   1.348       .  A
C157        N162   1.363       .  A
C157        C729   1.473       .  S
N158        C159   1.349       .  A
C159        N160   1.365       .  A
C159        C770   1.477       .  S
N160        C161   1.371       .  A
C161        N162   1.369       .  A
C161        C291   1.491   1_545  S
C163        H164   1.111       .  S
C163        C169   1.540       .  S
C163        C168   1.545       .  S
C163        C167   1.546       .  S
C165        H166   1.111       .  S
C165        C171   1.543       .  S
C165        C170   1.549       .  S
C165        C172   1.548       .  S
C167        C170   1.379       .  D
C167       C1610   1.487       .  S
C168        C171   1.370       .  D
C168        C714   1.489       .  S
C169        C172   1.372       .  D
C169        C742   1.497       .  S
C170        C938   1.503       .  S
C171       C1149   1.497       .  S
C172        C686   1.487       .  S
C173        N174   1.351       .  A
C173        N178   1.362       .  A
C173        C701   1.477       .  S
N174        C175   1.351       .  A
C175        N176   1.360       .  A
C175        C645   1.467       .  S
N176        C177   1.364       .  A
C177        N178   1.366       .  A
C177        C280   1.478       .  S
C179        H180   1.109       .  S
C179        C185   1.535       .  S
C179        C184   1.533       .  S
C179        C183   1.537       .  S
C181        H182   1.111       .  S
C181        C187   1.536       .  S
C181        C186   1.534       .  S
C181        C188   1.539       .  S
C183        C186   1.369       .  D
C183        C546   1.481       .  S
C184        C187   1.371       .  D
C184        C658   1.480       .  S
C185        C188   1.375       .  D
C185       C1330   1.495       .  S
C186        C589   1.484       .  S
C187        C561   1.482       .  S
C188        C617   1.485       .  S
C189        N190   1.359       .  A
C189        N194   1.346       .  A
C189        C533   1.465       .  S
N190        C191   1.364       .  A
C191        N192   1.365       .  A
C191        C294   1.474       .  S
N192        C193   1.361       .  A
C193        N194   1.350       .  A
C193        C518   1.476       .  S
C195        H196   1.106       .  S
C195        C201   1.547       .  S
C195        C200   1.535       .  S
C195        C199   1.536       .  S
C197        H198   1.111       .  S
C197        C203   1.538       .  S
C197        C202   1.539       .  S
C197        C204   1.532       .  S
C199        C202   1.370       .  D
C199        C505   1.492       .  S
C200        C203   1.372       .  D
C200        C477   1.481       .  S
C201        C204   1.374       .  D
C201       C1526   1.503       .  S
C202        C798   1.490       .  S
C203        C462   1.477       .  S
C204       C1302   1.483       .  S
C205        N206   1.351       .  A
C205        N210   1.362       .  A
C205       C1121   1.479       .  S
N206        C207   1.349       .  A
C207        N208   1.360       .  A
C207        C434   1.467   1_655  S
N208        C209   1.365       .  A
C209        N210   1.367       .  A
C211        H212   1.111       .  S
C211        C217   1.542       .  S
C211        C216   1.539       .  S
C211        C215   1.537       .  S
C213        H214   1.103       .  S
C213        C219   1.539       .  S
C213        C218   1.530       .  S
C213        C220   1.554       .  S
C215        C218   1.365       .  D
C215        C421   1.485       .  S
C216        C219   1.373       .  D
C216       C1261   1.485       .  S
C217        C220   1.386       .  D
C217       C1373   1.495       .  S
C218        C378   1.486       .  S
C219        C393   1.488       .  S
C220       C1554   1.517       .  S
C221        N222   1.350       .  A
C221        N226   1.365       .  A
C221        C406   1.487       .  S
N222        C223   1.346       .  A
C223        N224   1.358       .  A
C223        C350   1.469       .  S
N224        C225   1.367       .  A
C225        N226   1.370       .  A
C225        C279   1.480       .  S
C227        N228   1.361       .  A
C227        N232   1.351       .  A
C227        C490   1.470       .  S
N228        C229   1.365       .  A
C229        N230   1.364       .  A
C229        C306   1.478   1_455  S
N230        C231   1.361       .  A
C231        N232   1.351       .  A
C231        C365   1.469       .  S
C233        N234   1.363       .  A
C233        N238   1.351       .  A
C233        C630   1.473       .  S
N234        C235   1.366       .  A
C235        N236   1.366       .  A
N236        C237   1.360       .  A
C237        N238   1.349       .  A
C237        C449   1.469   1_655  S
C239        N240   1.359       .  A
C239        N244   1.351       .  A
C239        C673   1.472   1_565  S
N240        C241   1.365       .  A
C241        N242   1.369       .  A
N242        C243   1.366       .  A
C243        N244   1.351       .  A
C243        C602   1.483       .  S
C245        N246   1.365       .  A
C245        N250   1.351       .  A
C245       C1022   1.481       .  S
N246        C247   1.369       .  A
C247        N248   1.367       .  A
N248        C249   1.360       .  A
C249        N250   1.349       .  A
C249        C309   1.474   1_655  S
C251        H252   1.111       .  S
C251        C257   1.541       .  S
C251        C256   1.541       .  S
C251        C255   1.549       .  S
C253        H254   1.111       .  S
C253        C259   1.538       .  S
C253        C258   1.531       .  S
C253        C260   1.548       .  S
C255        C258   1.381       .  D
C255        C337   1.496       .  S
C256        C259   1.372       .  D
C256        C966   1.489       .  S
C257        C260   1.380       .  D
C257        C841   1.500       .  S
C258       C1457   1.485       .  S
C259       C1414   1.502       .  S
C260        C322   1.492       .  S
C261        N262   1.363       .  A
C261        N266   1.353   1_554  A
C261       C1078   1.487       .  S
N262        C263   1.367       .  A
C263        N264   1.366   1_554  A
N264        C265   1.359       .  A
C265        N266   1.350       .  A
C265        C574   1.474       .  S
O267        V275   1.900       .  S
O267        C277   1.264       .  A
O268        V275   1.901   1_554  S
O268        C278   1.264       .  A
O269        V275   1.903   1_554  S
O269        C279   1.265       .  A
O270        V275   1.905       .  S
O270        C280   1.265       .  A
O271        V276   1.910       .  S
O271        C280   1.267       .  A
O272        V276   1.913   1_554  S
O272        C279   1.266       .  A
O273        V276   1.915   1_554  S
O273        C278   1.267       .  A
O274        V276   1.918       .  S
O274        C277   1.268       .  A
V275        V276   2.087       .  T
O281        V289   1.916       .  S
O281        C291   1.268       .  A
O282        V289   1.916       .  S
O282        C292   1.267       .  A
O283        V289   1.906       .  S
O283        C293   1.265       .  A
O284        V289   1.905       .  S
O284        C294   1.265       .  A
O285        V290   1.904       .  S
O285        C294   1.265       .  A
O286        V290   1.907       .  S
O286        C293   1.266       .  A
O287        V290   1.916       .  S
O287        C292   1.268       .  A
O288        V290   1.918       .  S
O288        C291   1.268       .  A
V289        V290   2.086       .  T
O295        V303   1.912       .  S
O295        C305   1.266       .  A
O296        V303   1.911       .  S
O296        C306   1.267       .  A
O297        V303   1.926       .  S
O297        C307   1.269       .  A
O298        V303   1.920       .  S
O298        C308   1.269       .  A
O299        V304   1.906       .  S
O299        C308   1.265       .  A
O300        V304   1.902       .  S
O300        C307   1.266       .  A
O301        V304   1.905       .  S
O301        C306   1.265       .  A
O302        V304   1.900       .  S
O302        C305   1.265       .  A
V303        V304   2.086       .  T
C309        C310   1.411       .  A
C309        C314   1.402       .  A
C310        C311   1.404       .  A
C310        N315   1.438   1_455  S
C311        C312   1.401       .  A
C311        H316   1.084       .  S
C312        C317   1.483       .  S
C312        C313   1.411       .  A
C313        C314   1.409       .  A
C313        N318   1.437       .  S
C314        H319   1.084       .  S
N315        H335   1.046       .  S
N315        H336   1.045       .  S
C317        C320   1.406       .  A
C317        C324   1.413       .  A
N318        H333   1.045       .  S
N318        H334   1.046       .  S
C320        C321   1.406       .  A
C320        H325   1.084       .  S
C321        C322   1.419       .  A
C321        N326   1.438       .  S
C322        C323   1.402       .  A
C323        C324   1.397       .  A
C323        H327   1.078       .  S
C324        N328   1.439       .  S
N326        H329   1.045       .  S
N326        H330   1.042       .  S
N328        H331   1.045       .  S
N328        H332   1.043       .  S
C337        C338   1.418       .  A
C337        C342   1.403       .  A
C338        C339   1.405       .  A
C338        N343   1.437       .  S
C339        C340   1.406       .  A
C339        H344   1.084       .  S
C340        C345   1.490       .  S
C340        C341   1.409       .  A
C341        C342   1.403       .  A
C341        N346   1.438       .  S
C342        H347   1.078       .  S
N343        H363   1.042       .  S
N343        H364   1.045       .  S
C345        C348   1.403       .  A
C345        C352   1.414       .  A
N346        H361   1.046       .  S
N346        H362   1.046       .  S
C348        C349   1.404       .  A
C348        H353   1.083       .  S
C349        C350   1.411       .  A
C349        N354   1.439       .  S
C350        C351   1.401       .  A
C351        C352   1.408       .  A
C351        H355   1.084       .  S
C352        N356   1.437       .  S
N354        H357   1.046       .  S
N354        H358   1.045       .  S
N356        H359   1.046       .  S
N356        H360   1.045       .  S
C365        C366   1.415       .  A
C365        C370   1.403       .  A
C366        C367   1.400       .  A
C366        N371   1.439       .  S
C367        C368   1.402       .  A
C367        H372   1.084       .  S
C368        C373   1.481       .  S
C368        C369   1.409       .  A
C369        C370   1.407       .  A
C369        N374   1.437       .  S
C370        H375   1.084       .  S
N371        H391   1.043       .  S
N371        H392   1.045       .  S
C373        C376   1.407       .  A
C373        C380   1.406       .  A
N374        H389   1.045       .  S
N374        H390   1.046       .  S
C376        C377   1.410       .  A
C376        H381   1.084       .  S
C377        C378   1.407       .  A
C377        N382   1.437       .  S
C378        C379   1.405       .  A
C379        C380   1.400       .  A
C379        H383   1.081       .  S
C380        N384   1.438       .  S
N382        H385   1.046       .  S
N382        H386   1.045       .  S
N384        H387   1.046       .  S
N384        H388   1.046       .  S
C393        C394   1.416       .  A
C393        C398   1.403       .  A
C394        C395   1.407       .  A
C394        N399   1.438       .  S
C395        C396   1.405       .  A
C395        H400   1.084       .  S
C396        C401   1.480       .  S
C396        C397   1.404       .  A
C397        C398   1.401       .  A
C397        N402   1.438       .  S
C398        H403   1.079       .  S
N399        H419   1.044       .  S
N399        H420   1.046       .  S
C401        C404   1.406       .  A
C401        C408   1.403       .  A
N402        H417   1.046       .  S
N402        H418   1.045       .  S
C404        C405   1.413       .  A
C404        H409   1.084       .  S
C405        C406   1.412       .  A
C405        N410   1.437       .  S
C406        C407   1.410       .  A
C407        C408   1.400       .  A
C407        H411   1.084       .  S
C408        N412   1.438       .  S
N410        H413   1.046       .  S
N410        H414   1.046       .  S
N412        H415   1.046       .  S
N412        H416   1.046       .  S
C421        C422   1.413       .  A
C421        C426   1.401       .  A
C422        C423   1.399       .  A
C422        N427   1.435       .  S
C423        C424   1.396       .  A
C423        H428   1.084       .  S
C424        C429   1.480       .  S
C424        C425   1.413       .  A
C425        C426   1.410       .  A
C425        N430   1.437       .  S
C426        H431   1.082       .  S
N427        H447   1.043       .  S
N427        H448   1.045       .  S
C429        C432   1.401       .  A
C429        C436   1.418       .  A
N430        H445   1.046       .  S
N430        H446   1.046       .  S
C432        C433   1.400       .  A
C432        H437   1.084       .  S
C433        C434   1.415       .  A
C433        N438   1.439       .  S
C434        C435   1.401       .  A
C435        C436   1.403       .  A
C435        H439   1.084       .  S
C436        N440   1.440       .  S
N438        H441   1.046       .  S
N438        H442   1.044   1_455  S
N440        H443   1.046       .  S
N440        H444   1.043       .  S
C449        C450   1.408       .  A
C449        C454   1.402       .  A
C450        C451   1.407       .  A
C450        N455   1.437       .  S
C451        C452   1.406       .  A
C451        H456   1.083       .  S
C452        C457   1.488       .  S
C452        C453   1.412       .  A
C453        C454   1.405       .  A
C453        N458   1.438       .  S
C454        H459   1.084       .  S
N455        H475   1.046       .  S
N455        H476   1.045       .  S
C457        C460   1.409       .  A
C457        C464   1.410       .  A
N458        H473   1.045       .  S
N458        H474   1.046       .  S
C460        C461   1.407       .  A
C460        H465   1.083       .  S
C461        C462   1.405       .  A
C461        N466   1.437       .  S
C462        C463   1.401       .  A
C463        C464   1.403       .  A
C463        H467   1.081       .  S
C464        N468   1.438       .  S
N466        H469   1.046       .  S
N466        H470   1.046       .  S
N468        H471   1.046       .  S
N468        H472   1.046       .  S
C477        C478   1.409       .  A
C477        C482   1.401       .  A
C478        C479   1.409       .  A
C478        N483   1.436       .  S
C479        C480   1.407       .  A
C479        H484   1.084       .  S
C480        C485   1.483       .  S
C480        C481   1.405       .  A
C481        C482   1.398       .  A
C481        N486   1.432       .  S
C482        H487   1.081       .  S
N483        H503   1.046       .  S
N483        H504   1.045       .  S
C485        C488   1.403       .  A
C485        C492   1.410       .  A
N486        H501   1.046       .  S
N486        H502   1.046       .  S
C488        C489   1.402       .  A
C488        H493   1.084       .  S
C489        C490   1.416       .  A
C489        N494   1.439       .  S
C490        C491   1.403       .  A
C491        C492   1.407       .  A
C491        H495   1.084       .  S
C492        N496   1.438       .  S
N494        H497   1.045       .  S
N494        H498   1.044       .  S
N496        H499   1.046       .  S
N496        H500   1.046       .  S
C505        C506   1.407       .  A
C505        C510   1.409       .  A
C506        C507   1.405       .  A
C506        N511   1.431       .  S
C507        C508   1.404       .  A
C507        H512   1.084       .  S
C508        C513   1.473       .  S
C508        C509   1.403       .  A
C509        C510   1.398       .  A
C509        N514   1.439       .  S
C510        H515   1.080       .  S
N511        H531   1.045       .  S
N511        H532   1.045       .  S
C513        C516   1.404       .  A
C513        C520   1.404       .  A
N514        H529   1.046       .  S
N514        H530   1.046       .  S
C516        C517   1.409       .  A
C516        H521   1.084       .  S
C517        C518   1.411       .  A
C517        N522   1.437       .  S
C518        C519   1.406       .  A
C519        C520   1.397       .  A
C519        H523   1.084       .  S
C520        N524   1.439       .  S
N522        H525   1.046       .  S
N522        H526   1.045       .  S
N524        H527   1.046       .  S
N524        H528   1.046       .  S
C533        C534   1.415       .  A
C533        C538   1.403       .  A
C534        C535   1.400       .  A
C534        N539   1.439       .  S
C535        C536   1.403       .  A
C535        H540   1.084       .  S
C536        C541   1.480       .  S
C536        C537   1.408       .  A
C537        C538   1.404       .  A
C537        N542   1.437       .  S
C538        H543   1.084       .  S
N539        H559   1.043       .  S
N539        H560   1.045       .  S
C541        C544   1.408       .  A
C541        C548   1.407       .  A
N542        H557   1.045       .  S
N542        H558   1.046       .  S
C544        C545   1.407       .  A
C544        H549   1.084       .  S
C545        C546   1.403       .  A
C545        N550   1.431       .  S
C546        C547   1.404       .  A
C547        C548   1.397       .  A
C547        H551   1.081       .  S
C548        N552   1.438       .  S
N550        H553   1.046       .  S
N550        H554   1.045       .  S
N552        H555   1.046       .  S
N552        H556   1.046       .  S
C561        C562   1.412       .  A
C561        C566   1.405       .  A
C562        C563   1.404       .  A
C562        N567   1.438       .  S
C563        C564   1.408       .  A
C563        H568   1.084       .  S
C564        C569   1.489       .  S
C564        C565   1.408       .  A
C565        C566   1.403       .  A
C565        N570   1.438       .  S
C566        H571   1.083       .  S
N567        H587   1.043       .  S
N567        H588   1.046       .  S
C569        C572   1.408       .  A
C569        C576   1.409       .  A
N570        H585   1.046       .  S
N570        H586   1.046       .  S
C572        C573   1.409       .  A
C572        H577   1.084       .  S
C573        C574   1.409       .  A
C573        N578   1.438       .  S
C574        C575   1.403       .  A
C575        C576   1.403       .  A
C575        H579   1.084       .  S
C576        N580   1.438       .  S
N578        H581   1.046       .  S
N578        H582   1.045       .  S
N580        H583   1.046       .  S
N580        H584   1.046       .  S
C589        C590   1.403       .  A
C589        C594   1.403       .  A
C590        C591   1.409       .  A
C590        N595   1.432       .  S
C591        C592   1.411       .  A
C591        H596   1.083       .  S
C592        C597   1.493       .  S
C592        C593   1.411       .  A
C593        C594   1.402       .  A
C593        N598   1.438       .  S
C594        H599   1.082       .  S
N595        H615   1.046       .  S
N595        H616   1.045       .  S
C597        C600   1.408       .  A
C597        C604   1.410       .  A
N598        H613   1.046       .  S
N598        H614   1.046       .  S
C600        C601   1.410       .  A
C600        H605   1.083       .  S
C601        C602   1.409       .  A
C601        N606   1.437       .  S
C602        C603   1.407       .  A
C603        C604   1.407       .  A
C603        H607   1.084       .  S
C604        N608   1.438       .  S
N606        H609   1.046       .  S
N606        H610   1.045       .  S
N608        H611   1.046       .  S
N608        H612   1.046       .  S
C617        C618   1.415       .  A
C617        C622   1.402       .  A
C618        C619   1.396       .  A
C618        N623   1.432       .  S
C619        C620   1.394       .  A
C619        H624   1.084       .  S
C620        C625   1.473       .  S
C620        C621   1.413       .  A
C621        C622   1.403       .  A
C621        N626   1.432       .  S
C622        H627   1.084       .  S
N623        H643   1.046       .  S
N623        H644   1.045       .  S
C625        C628   1.402       .  A
C625        C632   1.407       .  A
N626        H641   1.045       .  S
N626        H642   1.045       .  S
C628        C629   1.408       .  A
C628        H633   1.084       .  S
C629        C630   1.410       .  A
C629        N634   1.437       .  S
C630        C631   1.405       .  A
C631        C632   1.402       .  A
C631        H635   1.084       .  S
C632        N636   1.439       .  S
N634        H637   1.045       .  S
N634        H638   1.046       .  S
N636        H639   1.046       .  S
N636        H640   1.045       .  S
C645        C646   1.415       .  A
C645        C650   1.403       .  A
C646        C647   1.400       .  A
C646        N651   1.439       .  S
C647        C648   1.403       .  A
C647        H652   1.084       .  S
C648        C653   1.481       .  S
C648        C649   1.409       .  A
C649        C650   1.404       .  A
C649        N654   1.438       .  S
C650        H655   1.084       .  S
N651        H671   1.043       .  S
N651        H672   1.045       .  S
C653        C656   1.408       .  A
C653        C660   1.407       .  A
N654        H669   1.045       .  S
N654        H670   1.046       .  S
C656        C657   1.407       .  A
C656        H661   1.083       .  S
C657        C658   1.406       .  A
C657        N662   1.437       .  S
C658        C659   1.404       .  A
C659        C660   1.398       .  A
C659        H663   1.080       .  S
C660        N664   1.438       .  S
N662        H665   1.045       .  S
N662        H666   1.046       .  S
N664        H667   1.046       .  S
N664        H668   1.046       .  S
C673        C674   1.411       .  A
C673        C678   1.402       .  A
C674        C675   1.403       .  A
C674        N679   1.438       .  S
C675        C676   1.399       .  A
C675        H680   1.084       .  S
C676        C681   1.478       .  S
C676        C677   1.410       .  A
C677        C678   1.408       .  A
C677        N682   1.437       .  S
C678        H683   1.084       .  S
N679        H699   1.046       .  S
N679        H700   1.046       .  S
C681        C684   1.401       .  A
C681        C688   1.405       .  A
N682        H697   1.046       .  S
N682        H698   1.046       .  S
C684        C685   1.402       .  A
C684        H689   1.084       .  S
C685        C686   1.420       .  A
C685        N690   1.438       .  S
C686        C687   1.405       .  A
C687        C688   1.404       .  A
C687        H691   1.083       .  S
C688        N692   1.437       .  S
N690        H693   1.045       .  S
N690        H694   1.040       .  S
N692        H695   1.046       .  S
N692        H696   1.046       .  S
C701        C702   1.417       .  A
C701        C706   1.404       .  A
C702        C703   1.405       .  A
C702        N707   1.438       .  S
C703        C704   1.403       .  A
C703        H708   1.084       .  S
C704        C709   1.482       .  S
C704        C705   1.414       .  A
C705        C706   1.401       .  A
C705        N710   1.439       .  S
C706        H711   1.084       .  S
N707        H727   1.042       .  S
N707        H728   1.046       .  S
C709        C712   1.397       .  A
C709        C716   1.411       .  A
N710        H725   1.045       .  S
N710        H726   1.043       .  S
C712        C713   1.403       .  A
C712        H717   1.084       .  S
C713        C714   1.413       .  A
C713        N718   1.435       .  S
C714        C715   1.404       .  A
C715        C716   1.411       .  A
C715        H719   1.083       .  S
C716        N720   1.437       .  S
N718        H721   1.046       .  S
N718        H722   1.044       .  S
N720        H723   1.046       .  S
N720        H724   1.046       .  S
C729        C730   1.409       .  A
C729        C734   1.401       .  A
C730        C731   1.409       .  A
C730        N735   1.437       .  S
C731        C732   1.406       .  A
C731        H736   1.084       .  S
C732        C737   1.492       .  S
C732        C733   1.414       .  A
C733        C734   1.407       .  A
C733        N738   1.438       .  S
C734        H739   1.084       .  S
N735        H755   1.045       .  S
N735        H756   1.046       .  S
C737        C740   1.397       .  A
C737        C744   1.416       .  A
N738        H753   1.045       .  S
N738        H754   1.046       .  S
C740        C741   1.398       .  A
C740        H745   1.084       .  S
C741        C742   1.408       .  A
C741        N746   1.425       .  S
C742        C743   1.406       .  A
C743        C744   1.414       .  A
C743        H747   1.082       .  S
C744        N748   1.437       .  S
N746        H749   1.045       .  S
N746        H750   1.046       .  S
N748        H751   1.045       .  S
N748        H752   1.046       .  S
C757        C758   1.409       .  A
C757        C762   1.405       .  A
C758        C759   1.401       .  A
C758        N763   1.432       .  S
C759        C760   1.398       .  A
C759        H764   1.084       .  S
C760        C765   1.489       .  S
C760        C761   1.421       .  A
C761        C762   1.410       .  A
C761        N766   1.438       .  S
C762        H767   1.083       .  S
N763        H783   1.044       .  S
N763        H784   1.046       .  S
C765        C768   1.401       .  A
C765        C772   1.420       .  A
N766        H781   1.046       .  S
N766        H782   1.043       .  S
C768        C769   1.401       .  A
C768        H773   1.084       .  S
C769        C770   1.418       .  A
C769        N774   1.440       .  S
C770        C771   1.403       .  A
C771        C772   1.408       .  A
C771        H775   1.084       .  S
C772        N776   1.438       .  S
N774        H777   1.046       .  S
N774        H778   1.043       .  S
N776        H779   1.046       .  S
N776        H780   1.042       .  S
C785        C786   1.411       .  A
C785        C790   1.400       .  A
C786        C787   1.401       .  A
C786        N791   1.438       .  S
C787        C788   1.399       .  A
C787        H792   1.084       .  S
C788        C793   1.477       .  S
C788        C789   1.412       .  A
C789        C790   1.407       .  A
C789        N794   1.437       .  S
C790        H795   1.084       .  S
N791        H811   1.046       .  S
N791        H812   1.046       .  S
C793        C796   1.392       .  A
C793        C800   1.413       .  A
N794        H809   1.046       .  S
N794        H810   1.046       .  S
C796        C797   1.389       .  A
C796        H801   1.085       .  S
C797        C798   1.421       .  A
C797        N802   1.429       .  S
C798        C799   1.403       .  A
C799        C800   1.411       .  A
C799        H803   1.084       .  S
C800        N804   1.437       .  S
N802        H805   1.041       .  S
N802        H806   1.038       .  S
N804        H807   1.046       .  S
N804        H808   1.046       .  S
C813        C814   1.409       .  A
C813        C818   1.409   1_545  A
C814        C815   1.410       .  A
C814        N819   1.437       .  S
C815        C816   1.406       .  A
C815        H820   1.084       .  S
C816        C821   1.480       .  S
C816        C817   1.412       .  A
C817        C818   1.399   1_545  A
C817        N822   1.439       .  S
C818        H823   1.084       .  S
N819        H839   1.046       .  S
N819        H840   1.046       .  S
C821        C824   1.406       .  A
C821        C828   1.403       .  A
N822        H837   1.046       .  S
N822        H838   1.043       .  S
C824        C825   1.411       .  A
C824        H829   1.084       .  S
C825        C826   1.412       .  A
C825        N830   1.436       .  S
C826        C827   1.403       .  A
C827        C828   1.400       .  A
C827        H831   1.075       .  S
C828        N832   1.438       .  S
N830        H833   1.045       .  S
N830        H834   1.045       .  S
N832        H835   1.046       .  S
N832        H836   1.046       .  S
C841        C842   1.412       .  A
C841        C846   1.407       .  A
C842        C843   1.402       .  A
C842        N847   1.430       .  S
C843        C844   1.398       .  A
C843        H848   1.084       .  S
C844        C849   1.489       .  S
C844        C845   1.419       .  A
C845        C846   1.410       .  A
C845        N850   1.437       .  S
C846        H851   1.083       .  S
N847        H867   1.045       .  S
N847        H868   1.046       .  S
C849        C852   1.409       .  A
C849        C856   1.412       .  A
N850        H865   1.045       .  S
N850        H866   1.043       .  S
C852        C853   1.417       .  A
C852        H857   1.084       .  S
C853        C854   1.413       .  A
C853        N858   1.437       .  S
C854        C855   1.409       .  A
C855        C856   1.398       .  A
C855        H859   1.084       .  S
C856        N860   1.440       .  S
N858        H861   1.046       .  S
N858        H862   1.046       .  S
N860        H863   1.046       .  S
N860        H864   1.043       .  S
C869        C870   1.410       .  A
C869        C874   1.411       .  A
C870        C871   1.410       .  A
C870        N875   1.430       .  S
C871        C872   1.406       .  A
C871        H876   1.084       .  S
C872        C877   1.488       .  S
C872        C873   1.406       .  A
C873        C874   1.402       .  A
C873        N878   1.438       .  S
C874        H879   1.083       .  S
N875        H895   1.046       .  S
N875        H896   1.045       .  S
C877        C880   1.403       .  A
C877        C884   1.410       .  A
N878        H893   1.045       .  S
N878        H894   1.046       .  S
C880        C881   1.400       .  A
C880        H885   1.084       .  S
C881        C882   1.414       .  A
C881        N886   1.439       .  S
C882        C883   1.405       .  A
C883        C884   1.411       .  A
C883        H887   1.084       .  S
C884        N888   1.437       .  S
N886        H889   1.046       .  S
N886        H890   1.044       .  S
N888        H891   1.046       .  S
N888        H892   1.046       .  S
C897        C898   1.426       .  A
C897        C902   1.410       .  A
C898        C899   1.398       .  A
C898        N903   1.430       .  S
C899        C900   1.391       .  A
C899        H904   1.085       .  S
C900        C905   1.482       .  S
C900        C901   1.410       .  A
C901        C902   1.412       .  A
C901        N906   1.438       .  S
C902        H907   1.081       .  S
N903        H923   1.046       .  S
N903        H924   1.046       .  S
C905        C908   1.408       .  A
C905        C912   1.412       .  A
N906        H921   1.046       .  S
N906        H922   1.044       .  S
C908        C909   1.412       .  A
C908        H913   1.084       .  S
C909        C910   1.411   1_455  A
C909        N914   1.437       .  S
C910        C911   1.408       .  A
C911        C912   1.397   1_655  A
C911        H915   1.084       .  S
C912        N916   1.439   1_455  S
N914        H917   1.046       .  S
N914        H918   1.045       .  S
N916        H919   1.046       .  S
N916        H920   1.043   1_655  S
C925        C926   1.416       .  A
C925        C930   1.403       .  A
C926        C927   1.400       .  A
C926        N931   1.439       .  S
C927        C928   1.400       .  A
C927        H932   1.084       .  S
C928        C933   1.482       .  S
C928        C929   1.410       .  A
C929        C930   1.408       .  A
C929        N934   1.437       .  S
C930        H935   1.084       .  S
N931        H951   1.044       .  S
N931        H952   1.046       .  S
C933        C936   1.402       .  A
C933        C940   1.403       .  A
N934        H949   1.045       .  S
N934        H950   1.046       .  S
C936        C937   1.406       .  A
C936        H941   1.084       .  S
C937        C938   1.425       .  A
C937        N942   1.435       .  S
C938        C939   1.406       .  A
C939        C940   1.401       .  A
C939        H943   1.075       .  S
C940        N944   1.438       .  S
N942        H945   1.042       .  S
N942        H946   1.039       .  S
N944        H947   1.046       .  S
N944        H948   1.046       .  S
C953        C954   1.413       .  A
C953        C958   1.402       .  A
C954        C955   1.398       .  A
C954        N959   1.439       .  S
C955        C956   1.401       .  A
C955        H960   1.084       .  S
C956        C961   1.476       .  S
C956        C957   1.415       .  A
C957        C958   1.403       .  A
C957        N962   1.438       .  S
C958        H963   1.084       .  S
N959        H979   1.044       .  S
N959        H980   1.046       .  S
C961        C964   1.395       .  A
C961        C968   1.411       .  A
N962        H977   1.046       .  S
N962        H978   1.043       .  S
C964        C965   1.397       .  A
C964        H969   1.084       .  S
C965        C966   1.412       .  A
C965        N970   1.429       .  S
C966        C967   1.404       .  A
C967        C968   1.410       .  A
C967        H971   1.081       .  S
C968        N972   1.437       .  S
N970        H973   1.046       .  S
N970        H974   1.046       .  S
N972        H975   1.046       .  S
N972        H976   1.045       .  S
C981        C982   1.416       .  A
C981        C986   1.403       .  A
C982        C983   1.402       .  A
C982        N987   1.439       .  S
C983        C984   1.403       .  A
C983        H988   1.084       .  S
C984        C989   1.485       .  S
C984        C985   1.409       .  A
C985        C986   1.408       .  A
C985        N990   1.437       .  S
C986        H991   1.084       .  S
N987       H1007   1.044       .  S
N987       H1008   1.046       .  S
C989        C992   1.407       .  A
C989        C996   1.404       .  A
N990       H1005   1.045       .  S
N990       H1006   1.046       .  S
C992        C993   1.414       .  A
C992        H997   1.083       .  S
C993        C994   1.414       .  A
C993        N998   1.437       .  S
C994        C995   1.410       .  A
C995        C996   1.399       .  A
C995        H999   1.078       .  S
C996       N1000   1.438       .  S
N998       H1001   1.046       .  S
N998       H1002   1.044       .  S
N1000      H1003   1.046       .  S
N1000      H1004   1.046       .  S
C1009      C1010   1.409       .  A
C1009      C1014   1.406       .  A
C1010      C1011   1.399       .  A
C1010      N1015   1.430       .  S
C1011      C1012   1.397       .  A
C1011      H1016   1.084       .  S
C1012      C1017   1.482       .  S
C1012      C1013   1.414       .  A
C1013      C1014   1.412       .  A
C1013      N1018   1.438       .  S
C1014      H1019   1.083       .  S
N1015      H1035   1.046       .  S
N1015      H1036   1.045       .  S
C1017      C1020   1.399       .  A
C1017      C1024   1.413       .  A
N1018      H1033   1.046       .  S
N1018      H1034   1.044       .  S
C1020      C1021   1.400       .  A
C1020      H1025   1.084       .  S
C1021      C1022   1.411       .  A
C1021      N1026   1.433       .  S
C1022      C1023   1.404       .  A
C1023      C1024   1.413       .  A
C1023      H1027   1.083       .  S
C1024      N1028   1.438       .  S
N1026      H1029   1.046       .  S
N1026      H1030   1.045       .  S
N1028      H1031   1.046       .  S
N1028      H1032   1.044       .  S
C1037      C1038   1.427       .  A
C1037      C1042   1.405       .  A
C1038      C1039   1.400       .  A
C1038      N1043   1.439       .  S
C1039      C1040   1.392       .  A
C1039      H1044   1.084       .  S
C1040      C1045   1.476       .  S
C1040      C1041   1.408       .  A
C1041      C1042   1.410       .  A
C1041      N1046   1.437       .  S
C1042      H1047   1.082       .  S
N1043      H1063   1.041       .  S
N1043      H1064   1.045       .  S
C1045      C1048   1.404       .  A
C1045      C1052   1.412       .  A
N1046      H1061   1.046       .  S
N1046      H1062   1.046       .  S
C1048      C1049   1.405       .  A
C1048      H1053   1.084       .  S
C1049      C1050   1.417       .  A
C1049      N1054   1.438       .  S
C1050      C1051   1.405       .  A
C1051      C1052   1.396       .  A
C1051      H1055   1.085       .  S
C1052      N1056   1.440       .  S
N1054      H1057   1.046       .  S
N1054      H1058   1.042       .  S
N1056      H1059   1.046       .  S
N1056      H1060   1.043       .  S
C1065      C1066   1.409       .  A
C1065      C1070   1.411       .  A
C1066      C1067   1.405       .  A
C1066      N1071   1.430       .  S
C1067      C1068   1.404       .  A
C1067      H1072   1.084       .  S
C1068      C1073   1.483       .  S
C1068      C1069   1.406       .  A
C1069      C1070   1.404       .  A
C1069      N1074   1.438       .  S
C1070      H1075   1.083       .  S
N1071      H1091   1.046       .  S
N1071      H1092   1.046       .  S
C1073      C1076   1.406       .  A
C1073      C1080   1.405       .  A
N1074      H1089   1.046       .  S
N1074      H1090   1.046       .  S
C1076      C1077   1.413       .  A
C1076      H1081   1.084       .  S
C1077      C1078   1.414       .  A
C1077      N1082   1.437       .  S
C1078      C1079   1.407       .  A
C1079      C1080   1.399       .  A
C1079      H1083   1.084       .  S
C1080      N1084   1.439       .  S
N1082      H1085   1.046       .  S
N1082      H1086   1.045       .  S
N1084      H1087   1.045       .  S
N1084      H1088   1.046       .  S
C1093      C1094   1.414       .  A
C1093      C1098   1.402       .  A
C1094      C1095   1.400       .  A
C1094      N1099   1.439       .  S
C1095      C1096   1.397       .  A
C1095      H1100   1.084       .  S
C1096      C1101   1.475       .  S
C1096      C1097   1.411       .  A
C1097      C1098   1.410       .  A
C1097      N1102   1.437       .  S
C1098      H1103   1.084       .  S
N1099      H1119   1.045       .  S
N1099      H1120   1.046       .  S
C1101      C1104   1.395       .  A
C1101      C1108   1.411       .  A
N1102      H1117   1.046       .  S
N1102      H1118   1.046       .  S
C1104      C1105   1.397       .  A
C1104      H1109   1.084       .  S
C1105      C1106   1.413       .  A
C1105      N1110   1.430       .  S
C1106      C1107   1.402       .  A
C1107      C1108   1.410       .  A
C1107      H1111   1.084       .  S
C1108      N1112   1.437       .  S
N1110      H1113   1.046       .  S
N1110      H1114   1.046       .  S
N1112      H1115   1.046       .  S
N1112      H1116   1.046       .  S
C1121      C1122   1.411       .  A
C1121      C1126   1.407       .  A
C1122      C1123   1.409       .  A
C1122      N1127   1.437       .  S
C1123      C1124   1.405       .  A
C1123      H1128   1.084       .  S
C1124      C1129   1.479       .  S
C1124      C1125   1.405       .  A
C1125      C1126   1.401       .  A
C1125      N1130   1.439       .  S
C1126      H1131   1.084       .  S
N1127      H1147   1.046       .  S
N1127      H1148   1.046       .  S
C1129      C1132   1.406       .  A
C1129      C1136   1.413       .  A
N1130      H1145   1.045       .  S
N1130      H1146   1.046       .  S
C1132      C1133   1.407       .  A
C1132      H1137   1.084       .  S
C1133      C1134   1.408       .  A
C1133      N1138   1.437       .  S
C1134      C1135   1.406       .  A
C1135      C1136   1.396       .  A
C1135      H1139   1.084       .  S
C1136      N1140   1.439       .  S
N1138      H1141   1.045       .  S
N1138      H1142   1.045       .  S
N1140      H1143   1.046       .  S
N1140      H1144   1.042       .  S
C1149      C1150   1.416       .  A
C1149      C1154   1.406       .  A
C1150      C1151   1.393       .  A
C1150      N1155   1.424       .  S
C1151      C1152   1.394       .  A
C1151      H1156   1.084       .  S
C1152      C1157   1.484       .  S
C1152      C1153   1.414       .  A
C1153      C1154   1.414       .  A
C1153      N1158   1.437       .  S
C1154      H1159   1.083       .  S
N1155      H1175   1.044       .  S
N1155      H1176   1.043       .  S
C1157      C1160   1.408       .  A
C1157      C1164   1.413       .  A
N1158      H1173   1.046       .  S
N1158      H1174   1.045       .  S
C1160      C1161   1.412       .  A
C1160      H1165   1.084       .  S
C1161      C1162   1.409       .  A
C1161      N1166   1.437       .  S
C1162      C1163   1.407       .  A
C1163      C1164   1.397       .  A
C1163      H1167   1.084       .  S
C1164      N1168   1.439       .  S
N1166      H1169   1.046       .  S
N1166      H1170   1.046       .  S
N1168      H1171   1.046       .  S
N1168      H1172   1.043       .  S
C1177      C1178   1.416       .  A
C1177      C1182   1.403       .  A
C1178      C1179   1.399       .  A
C1178      N1183   1.434       .  S
C1179      C1180   1.396       .  A
C1179      H1184   1.084       .  S
C1180      C1185   1.483       .  S
C1180      C1181   1.414       .  A
C1181      C1182   1.411       .  A
C1181      N1186   1.437       .  S
C1182      H1187   1.083       .  S
N1183      H1203   1.045       .  S
N1183      H1204   1.046       .  S
C1185      C1188   1.403       .  A
C1185      C1192   1.420       .  A
N1186      H1201   1.046       .  S
N1186      H1202   1.045       .  S
C1188      C1189   1.402       .  A
C1188      H1193   1.084       .  S
C1189      C1190   1.415       .  A
C1189      N1194   1.439       .  S
C1190      C1191   1.400       .  A
C1191      C1192   1.400       .  A
C1191      H1195   1.085       .  S
C1192      N1196   1.441       .  S
N1194      H1197   1.045       .  S
N1194      H1198   1.044       .  S
N1196      H1199   1.046       .  S
N1196      H1200   1.042       .  S
C1205      C1206   1.429       .  A
C1205      C1210   1.407       .  A
C1206      C1207   1.399       .  A
C1206      N1211   1.439       .  S
C1207      C1208   1.392       .  A
C1207      H1212   1.084       .  S
C1208      C1213   1.480       .  S
C1208      C1209   1.408       .  A
C1209      C1210   1.412       .  A
C1209      N1214   1.437       .  S
C1210      H1215   1.080       .  S
N1211      H1231   1.042       .  S
N1211      H1232   1.045       .  S
C1213      C1216   1.404       .  A
C1213      C1220   1.415       .  A
N1214      H1229   1.046       .  S
N1214      H1230   1.046       .  S
C1216      C1217   1.406       .  A
C1216      H1221   1.084       .  S
C1217      C1218   1.416       .  A
C1217      N1222   1.438       .  S
C1218      C1219   1.403       .  A
C1219      C1220   1.398       .  A
C1219      H1223   1.085   1_545  S
C1220      N1224   1.440       .  S
N1222      H1225   1.045       .  S
N1222      H1226   1.043       .  S
N1224      H1227   1.046       .  S
N1224      H1228   1.043       .  S
C1233      C1234   1.418       .  A
C1233      C1238   1.403       .  A
C1234      C1235   1.402       .  A
C1234      N1239   1.439       .  S
C1235      C1236   1.401       .  A
C1235      H1240   1.084       .  S
C1236      C1241   1.485       .  S
C1236      C1237   1.411       .  A
C1237      C1238   1.410       .  A
C1237      N1242   1.437       .  S
C1238      H1243   1.084       .  S
N1239      H1259   1.044       .  S
N1239      H1260   1.046       .  S
C1241      C1244   1.407       .  A
C1241      C1248   1.406       .  A
N1242      H1257   1.045       .  S
N1242      H1258   1.046       .  S
C1244      C1245   1.409       .  A
C1244      H1249   1.084       .  S
C1245      C1246   1.416       .  A
C1245      N1250   1.437       .  S
C1246      C1247   1.403       .  A
C1247      C1248   1.401       .  A
C1247      H1251   1.076       .  S
C1248      N1252   1.438       .  S
N1250      H1253   1.045       .  S
N1250      H1254   1.044       .  S
N1252      H1255   1.046       .  S
N1252      H1256   1.045       .  S
C1261      C1262   1.408       .  A
C1261      C1266   1.403       .  A
C1262      C1263   1.409       .  A
C1262      N1267   1.436       .  S
C1263      C1264   1.406       .  A
C1263      H1268   1.084       .  S
C1264      C1269   1.483       .  S
C1264      C1265   1.407       .  A
C1265      C1266   1.404       .  A
C1265      N1270   1.438       .  S
C1266      H1271   1.080       .  S
N1267      H1287   1.045       .  S
N1267      H1288   1.045       .  S
C1269      C1272   1.405       .  A
C1269      C1276   1.404       .  A
N1270      H1285   1.046       .  S
N1270      H1286   1.046       .  S
C1272      C1273   1.413       .  A
C1272      H1277   1.084       .  S
C1273      C1274   1.414       .  A
C1273      N1278   1.437       .  S
C1274      C1275   1.408       .  A
C1275      C1276   1.401       .  A
C1275      H1279   1.084       .  S
C1276      N1280   1.438       .  S
N1278      H1281   1.045       .  S
N1278      H1282   1.045       .  S
N1280      H1283   1.046       .  S
N1280      H1284   1.046       .  S
C1289      C1290   1.411       .  A
C1289      C1294   1.404       .  A
C1290      C1291   1.408       .  A
C1290      N1295   1.437       .  S
C1291      C1292   1.403       .  A
C1291      H1296   1.084       .  S
C1292      C1297   1.476       .  S
C1292      C1293   1.407       .  A
C1293      C1294   1.401       .  A
C1293      N1298   1.439       .  S
C1294      H1299   1.084       .  S
N1295      H1315   1.045       .  S
N1295      H1316   1.046   1_455  S
C1297      C1300   1.406       .  A
C1297      C1304   1.406       .  A
N1298      H1313   1.045       .  S
N1298      H1314   1.046       .  S
C1300      C1301   1.404       .  A
C1300      H1305   1.084       .  S
C1301      C1302   1.404       .  A
C1301      N1306   1.432       .  S
C1302      C1303   1.406       .  A
C1303      C1304   1.400       .  A
C1303      H1307   1.082       .  S
C1304      N1308   1.438       .  S
N1306      H1309   1.045       .  S
N1306      H1310   1.045       .  S
N1308      H1311   1.046       .  S
N1308      H1312   1.046       .  S
C1317      C1318   1.411       .  A
C1317      C1322   1.404       .  A
C1318      C1319   1.403       .  A
C1318      N1323   1.438       .  S
C1319      C1320   1.400       .  A
C1319      H1324   1.084       .  S
C1320      C1325   1.482       .  S
C1320      C1321   1.410       .  A
C1321      C1322   1.412       .  A
C1321      N1326   1.437       .  S
C1322      H1327   1.084       .  S
N1323      H1343   1.046       .  S
N1323      H1344   1.046       .  S
C1325      C1328   1.406       .  A
C1325      C1332   1.405       .  A
N1326      H1341   1.045       .  S
N1326      H1342   1.046       .  S
C1328      C1329   1.410       .  A
C1328      H1333   1.084       .  S
C1329      C1330   1.408       .  A
C1329      N1334   1.432       .  S
C1330      C1331   1.408       .  A
C1331      C1332   1.401       .  A
C1331      H1335   1.083       .  S
C1332      N1336   1.438       .  S
N1334      H1337   1.045       .  S
N1334      H1338   1.045       .  S
N1336      H1339   1.046       .  S
N1336      H1340   1.045       .  S
C1345      C1346   1.413       .  A
C1345      C1350   1.405       .  A
C1346      C1347   1.414       .  A
C1346      N1351   1.437       .  S
C1347      C1348   1.406       .  A
C1347      H1352   1.083       .  S
C1348      C1353   1.486       .  S
C1348      C1349   1.404       .  A
C1349      C1350   1.401       .  A
C1349      N1354   1.433       .  S
C1350      H1355   1.084       .  S
N1351      H1371   1.045       .  S
N1351      H1372   1.046       .  S
C1353      C1356   1.406       .  A
C1353      C1360   1.408       .  A
N1354      H1369   1.046       .  S
N1354      H1370   1.045       .  S
C1356      C1357   1.410       .  A
C1356      H1361   1.084       .  S
C1357      C1358   1.408       .  A
C1357      N1362   1.429       .  S
C1358      C1359   1.411       .  A
C1359      C1360   1.399       .  A
C1359      H1363   1.084       .  S
C1360      N1364   1.433       .  S
N1362      H1365   1.046       .  S
N1362      H1366   1.045       .  S
N1364      H1367   1.045       .  S
N1364      H1368   1.046       .  S
C1373      C1374   1.418       .  A
C1373      C1378   1.405       .  A
C1374      C1375   1.395       .  A
C1374      N1379   1.429       .  S
C1375      C1376   1.397       .  A
C1375      H1380   1.084       .  S
C1376      C1381   1.481       .  S
C1376      C1377   1.418       .  A
C1377      C1378   1.407       .  A
C1377      N1382   1.438       .  S
C1378      H1383   1.084       .  S
N1379      H1399   1.044       .  S
N1379      H1400   1.042       .  S
C1381      C1384   1.403       .  A
C1381      C1388   1.407       .  A
N1382      H1397   1.046       .  S
N1382      H1398   1.043       .  S
C1384      C1385   1.406       .  A
C1384      H1389   1.084       .  S
C1385      C1386   1.417       .  A
C1385      N1390   1.438       .  S
C1386      C1387   1.404       .  A
C1387      C1388   1.404       .  A
C1387      H1391   1.084       .  S
C1388      N1392   1.438       .  S
N1390      H1393   1.046       .  S
N1390      H1394   1.043       .  S
N1392      H1395   1.046       .  S
N1392      H1396   1.045       .  S
C1401      C1402   1.414       .  A
C1401      C1406   1.403       .  A
C1402      C1403   1.403       .  A
C1402      N1407   1.439   1_545  S
C1403      C1404   1.399       .  A
C1403      H1408   1.084       .  S
C1404      C1409   1.487       .  S
C1404      C1405   1.421       .  A
C1405      C1406   1.410       .  A
C1405      N1410   1.439       .  S
C1406      H1411   1.084       .  S
N1407      H1427   1.046       .  S
N1407      H1428   1.046       .  S
C1409      C1412   1.395       .  A
C1409      C1416   1.412       .  A
N1410      H1425   1.046       .  S
N1410      H1426   1.043       .  S
C1412      C1413   1.396       .  A
C1412      H1417   1.084       .  S
C1413      C1414   1.423       .  A
C1413      N1418   1.428       .  S
C1414      C1415   1.405       .  A
C1415      C1416   1.413       .  A
C1415      H1419   1.080       .  S
C1416      N1420   1.437       .  S
N1418      H1421   1.039       .  S
N1418      H1422   1.043       .  S
N1420      H1423   1.046       .  S
N1420      H1424   1.046       .  S
C1429      C1430   1.416       .  A
C1429      C1434   1.405       .  A
C1430      C1431   1.399       .  A
C1430      N1435   1.431       .  S
C1431      C1432   1.395       .  A
C1431      H1436   1.084       .  S
C1432      C1437   1.483       .  S
C1432      C1433   1.413       .  A
C1433      C1434   1.412       .  A
C1433      N1438   1.438       .  S
C1434      H1439   1.079       .  S
N1435      H1455   1.045       .  S
N1435      H1456   1.045       .  S
C1437      C1440   1.405       .  A
C1437      C1444   1.407       .  A
N1438      H1453   1.045       .  S
N1438      H1454   1.044       .  S
C1440      C1441   1.412       .  A
C1440      H1445   1.084       .  S
C1441      C1442   1.412       .  A
C1441      N1446   1.437       .  S
C1442      C1443   1.408       .  A
C1443      C1444   1.403       .  A
C1443      H1447   1.084       .  S
C1444      N1448   1.439       .  S
N1446      H1449   1.046       .  S
N1446      H1450   1.045       .  S
N1448      H1451   1.046       .  S
N1448      H1452   1.046       .  S
C1457      C1458   1.409       .  A
C1457      C1462   1.403       .  A
C1458      C1459   1.410       .  A
C1458      N1463   1.436       .  S
C1459      C1460   1.406       .  A
C1459      H1464   1.084       .  S
C1460      C1465   1.481       .  S
C1460      C1461   1.406       .  A
C1461      C1462   1.400       .  A
C1461      N1466   1.438       .  S
C1462      H1467   1.079       .  S
N1463      H1483   1.045       .  S
N1463      H1484   1.045       .  S
C1465      C1468   1.400       .  A
C1465      C1472   1.412       .  A
N1466      H1481   1.046       .  S
N1466      H1482   1.046       .  S
C1468      C1469   1.400       .  A
C1468      H1473   1.084       .  S
C1469      C1470   1.408       .  A
C1469      N1474   1.433       .  S
C1470      C1471   1.403       .  A
C1471      C1472   1.411       .  A
C1471      H1475   1.084       .  S
C1472      N1476   1.437       .  S
N1474      H1477   1.046       .  S
N1474      H1478   1.046       .  S
N1476      H1479   1.046       .  S
N1476      H1480   1.046       .  S
C1485      C1486   1.415       .  A
C1485      C1490   1.399       .  A
C1486      C1487   1.402       .  A
C1486      N1491   1.439       .  S
C1487      C1488   1.404       .  A
C1487      H1492   1.084       .  S
C1488      C1493   1.487       .  S
C1488      C1489   1.421       .  A
C1489      C1490   1.402       .  A
C1489      N1494   1.440       .  S
C1490      H1495   1.085       .  S
N1491      H1511   1.044       .  S
N1491      H1512   1.046       .  S
C1493      C1496   1.398       .  A
C1493      C1500   1.414       .  A
N1494      H1509   1.046       .  S
N1494      H1510   1.042       .  S
C1496      C1497   1.395       .  A
C1496      H1501   1.084       .  S
C1497      C1498   1.419       .  A
C1497      N1502   1.429       .  S
C1498      C1499   1.403       .  A
C1499      C1500   1.411       .  A
C1499      H1503   1.084       .  S
C1500      N1504   1.437       .  S
N1502      H1505   1.042       .  S
N1502      H1506   1.044       .  S
N1504      H1507   1.046       .  S
N1504      H1508   1.045       .  S
C1513      C1514   1.409       .  A
C1513      C1518   1.406       .  A
C1514      C1515   1.410       .  A
C1514      N1519   1.437       .  S
C1515      C1516   1.406       .  A
C1515      H1520   1.084       .  S
C1516      C1521   1.478       .  S
C1516      C1517   1.413       .  A
C1517      C1518   1.397       .  A
C1517      N1522   1.440       .  S
C1518      H1523   1.084       .  S
N1519      H1539   1.046       .  S
N1519      H1540   1.046       .  S
C1521      C1524   1.407       .  A
C1521      C1528   1.409       .  A
N1522      H1537   1.046       .  S
N1522      H1538   1.043       .  S
C1524      C1525   1.410       .  A
C1524      H1529   1.084       .  S
C1525      C1526   1.409       .  A
C1525      N1530   1.431       .  S
C1526      C1527   1.411       .  A
C1527      C1528   1.393       .  A
C1527      H1531   1.079       .  S
C1528      N1532   1.440       .  S
N1530      H1533   1.046       .  S
N1530      H1534   1.045       .  S
N1532      H1535   1.046       .  S
N1532      H1536   1.043       .  S
C1541      C1542   1.418       .  A
C1541      C1546   1.403       .  A
C1542      C1543   1.397       .  A
C1542      N1547   1.434       .  S
C1543      C1544   1.401       .  A
C1543      H1548   1.083       .  S
C1544      C1549   1.501       .  S
C1544      C1545   1.426       .  A
C1545      C1546   1.412       .  A
C1545      N1550   1.438       .  S
C1546      H1551   1.083       .  S
N1547      H1567   1.045       .  S
N1547      H1568   1.046       .  S
C1549      C1552   1.407       .  A
C1549      C1556   1.408       .  A
N1550      H1565   1.044       .  S
N1550      H1566   1.046       .  S
C1552      C1553   1.409       .  A
C1552      H1557   1.083       .  S
C1553      C1554   1.417       .  A
C1553      N1558   1.431       .  S
C1554      C1555   1.412       .  A
C1555      C1556   1.401       .  A
C1555      H1559   1.076       .  S
C1556      N1560   1.433       .  S
N1558      H1561   1.045       .  S
N1558      H1562   1.046       .  S
N1560      H1563   1.046       .  S
N1560      H1564   1.046       .  S
C1569      C1570   1.422       .  A
C1569      C1574   1.404       .  A
C1570      C1571   1.398       .  A
C1570      N1575   1.440       .  S
C1571      C1572   1.400       .  A
C1571      H1576   1.083       .  S
C1572      C1577   1.502       .  S
C1572      C1573   1.419       .  A
C1573      C1574   1.414       .  A
C1573      N1578   1.432       .  S
C1574      H1579   1.083       .  S
N1575      H1595   1.046       .  S
N1575      H1596   1.046       .  S
C1577      C1580   1.412       .  A
C1577      C1584   1.412       .  A
N1578      H1593   1.045       .  S
N1578      H1594   1.046       .  S
C1580      C1581   1.405       .  A
C1580      H1585   1.083       .  S
C1581      C1582   1.414       .  A
C1581      N1586   1.438       .  S
C1582      C1583   1.401       .  A
C1583      C1584   1.403       .  A
C1583      H1587   1.080       .  S
C1584      N1588   1.432       .  S
N1586      H1589   1.045       .  S
N1586      H1590   1.044       .  S
N1588      H1591   1.046       .  S
N1588      H1592   1.046       .  S
C1597      C1598   1.409       .  A
C1597      C1602   1.402       .  A
C1598      C1599   1.398       .  A
C1598      N1603   1.433       .  S
C1599      C1600   1.398       .  A
C1599      H1604   1.084       .  S
C1600      C1605   1.474       .  S
C1600      C1601   1.411       .  A
C1601      C1602   1.408       .  A
C1601      N1606   1.437       .  S
C1602      H1607   1.084       .  S
N1603      H1623   1.046       .  S
N1603      H1624   1.046       .  S
C1605      C1608   1.400       .  A
C1605      C1612   1.405       .  A
N1606      H1621   1.046       .  S
N1606      H1622   1.046       .  S
C1608      C1609   1.402       .  A
C1608      H1613   1.084       .  S
C1609      C1610   1.412       .  A
C1609      N1614   1.430       .  S
C1610      C1611   1.406       .  A
C1611      C1612   1.404       .  A
C1611      H1615   1.082       .  S
C1612      N1616   1.437       .  S
N1614      H1617   1.045       .  S
N1614      H1618   1.046       .  S
N1616      H1619   1.046       .  S
N1616      H1620   1.046       .  S
C1625      C1626   1.413       .  A
C1625      C1630   1.410       .  A
C1626      C1627   1.412       .  A
C1626      N1631   1.437       .  S
C1627      C1628   1.405       .  A
C1627      H1632   1.084       .  S
C1628      C1633   1.480       .  S
C1628      C1629   1.403       .  A
C1629      C1630   1.401       .  A
C1629      N1634   1.438       .  S
C1630      H1635   1.084       .  S
N1631      H1651   1.045       .  S
N1631      H1652   1.046       .  S
C1633      C1636   1.406       .  A
C1633      C1640   1.404       .  A
N1634      H1649   1.046       .  S
N1634      H1650   1.045       .  S
C1636      C1637   1.411       .  A
C1636      H1641   1.083       .  S
C1637      C1638   1.410       .  A
C1637      N1642   1.437       .  S
C1638      C1639   1.403       .  A
C1639      C1640   1.401       .  A
C1639      H1643   1.079       .  S
C1640      N1644   1.438       .  S
N1642      H1645   1.045       .  S
N1642      H1646   1.046       .  S
N1644      H1647   1.046       .  S
N1644      H1648   1.045       .  S
