geometry optimzed in LAMMPS
_audit_creation_date              2020-11-30 
_audit_creation_method            'lammps2cif' 
_symmetry_space_group_name_H-M    'P1' 
_symmetry_Int_Tables_number       1 
_symmetry_cell_setting            triclinic 
loop_ 
_symmetry_equiv_pos_as_xyz 
  x,y,z 
_cell_length_a                    30.36170418 
_cell_length_b                    30.407533045743783 
_cell_length_c                    45.47451909827594 
_cell_angle_alpha                 89.85302723452929 
_cell_angle_beta                  90.23317439176327 
_cell_angle_gamma                 120.01409789092976 
loop_ 
_atom_site_label 
_atom_site_type_symbol 
_atom_site_fract_x 
_atom_site_fract_y 
_atom_site_fract_z 
_atom_site_charge 
O1          O  0.96454899  0.91907103  0.33565059    -0.74800
O2          O  0.08801617  0.04771693  0.33273577    -0.74900
O3          O  0.02836124  0.98557657  0.37636245    -0.74900
O4          O  0.02426297  0.98123548  0.29228762    -0.75000
O5          O  0.98200022  0.02372401  0.29199216    -0.74900
O6          O  0.98131885  0.02305903  0.37610606    -0.74900
O7          O  0.04323950  0.08756741  0.33412357    -0.74800
O8          O  0.91992320  0.95907320  0.33371009    -0.74900
Ni9        Ni  0.02792992  0.98199482  0.33430568     1.25400
Ni10       Ni  0.97999663  0.02473800  0.33402094     1.25400
C11         C  0.92178305  0.91789781  0.33466130     0.87400
C12         C  0.08599936  0.08884145  0.33285176     0.87300
C13         C  0.00499557  0.00452141  0.39014362     0.87300
C14         C  0.00303696  0.00233741  0.27828473     0.87500
O15         O  0.95561659  0.41115032  0.33444415    -0.74800
O16         O  0.08352540  0.53548874  0.33370148    -0.74900
O17         O  0.02037370  0.47405042  0.37622113    -0.74900
O18         O  0.01908658  0.47279156  0.29202242    -0.75000
O19         O  0.97949630  0.51782293  0.29212920    -0.74900
O20         O  0.97731140  0.51580638  0.37620653    -0.74900
O21         O  0.04268078  0.57930468  0.33489158    -0.74800
O22         O  0.91484881  0.45504642  0.33363619    -0.74900
Ni23       Ni  0.02109018  0.47177605  0.33411391     1.25400
Ni24       Ni  0.97721303  0.51862401  0.33417547     1.25400
C25         C  0.91409771  0.41256241  0.33419075     0.87400
C26         C  0.08421434  0.57795486  0.33432186     0.87300
C27         C  0.99857952  0.49461122  0.39001629     0.87300
C28         C  0.99917084  0.49531570  0.27816356     0.87500
O29         O  0.53897920  0.07911946  0.33136306    -0.74800
O30         O  0.41665704  0.95000632  0.33097629    -0.74900
O31         O  0.47546081  0.01564559  0.37331526    -0.74900
O32         O  0.47981417  0.01252750  0.28914061    -0.75000
O33         O  0.52652593  0.97474124  0.29187513    -0.74900
O34         O  0.52121572  0.97680733  0.37587618    -0.74900
O35         O  0.46183225  0.91064861  0.33353573    -0.74800
O36         O  0.58464110  0.04028246  0.33476145    -0.74900
Ni37       Ni  0.47614762  0.01573611  0.33108541     1.25400
Ni38       Ni  0.52514197  0.97417551  0.33404236     1.25400
C39         C  0.58195339  0.08100248  0.33360224     0.87400
C40         C  0.41882085  0.90905844  0.33226358     0.87300
C41         C  0.49784109  0.99684392  0.38843244     0.87300
C42         C  0.50385338  0.99306160  0.27665664     0.87500
O43         O  0.52032310  0.47948639  0.29045971    -0.74800
O44         O  0.52465241  0.48424545  0.37469282    -0.74900
O45         O  0.45842437  0.42000712  0.33404688    -0.74900
O46         O  0.58682042  0.54347437  0.33141836    -0.75000
O47         O  0.54662446  0.58788803  0.33279494    -0.74900
O48         O  0.41806642  0.46425795  0.33172233    -0.74900
O49         O  0.48119041  0.52559887  0.37407032    -0.74800
O50         O  0.48289228  0.52657139  0.29023898    -0.74900
Ni51       Ni  0.52400387  0.48018638  0.33263972     1.25400
Ni52       Ni  0.48083075  0.52771123  0.33217399     1.25400
C53         C  0.50106593  0.50256368  0.27645225     0.87400
C54         C  0.50291701  0.50517840  0.38815617     0.87300
C55         C  0.41709263  0.42167419  0.33304597     0.87300
C56         C  0.58796170  0.58613935  0.33228168     0.87500
O57         O  0.04275310  0.95516730  0.00112025    -0.74800
O58         O  0.91866461  0.95900772  0.00096297    -0.74900
O59         O  0.98063259  0.95704283  0.95881970    -0.74900
O60         O  0.98079906  0.95723894  0.04286326    -0.75000
O61         O  0.02443901  0.04188424  0.04255926    -0.74900
O62         O  0.02539411  0.04166994  0.95852400    -0.74900
O63         O  0.96268587  0.04365528  0.00014791    -0.74800
O64         O  0.08679321  0.03983358  0.00087717    -0.74900
Ni65       Ni  0.97910566  0.95409852  0.00089006     1.25400
Ni66       Ni  0.02637817  0.04477610  0.00052314     1.25400
C67         C  0.08529395  0.99696224  0.00108812     0.87400
C68         C  0.92014980  0.00186806  0.00083332     0.87300
C69         C  0.00343241  0.99923357  0.94479765     0.87300
C70         C  0.00258084  0.99967999  0.05659393     0.87500
O71         O  0.96856802  0.45296912  0.04266631    -0.74800
O72         O  0.97008387  0.45552638  0.95852636    -0.74900
O73         O  0.03202466  0.45351558  0.00064723    -0.74900
O74         O  0.90656491  0.45534190  0.00057271    -0.75000
O75         O  0.95021518  0.54000544  0.99968565    -0.74900
O76         O  0.07502128  0.53808888  0.00287238    -0.74900
O77         O  0.01548872  0.54008398  0.95922692    -0.74800
O78         O  0.00976669  0.53759659  0.04331889    -0.74900
Ni79       Ni  0.96768327  0.45128262  0.00057419     1.25400
Ni80       Ni  0.01408589  0.54192360  0.00131897     1.25400
C81         C  0.98887628  0.49492878  0.05689711     0.87400
C82         C  0.99393283  0.49811725  0.94497314     0.87300
C83         C  0.07427036  0.49564065  0.00179939     0.87300
C84         C  0.90782581  0.49811915  0.99996562     0.87500
O85         O  0.45948048  0.03963095  0.00217474    -0.74800
O86         O  0.58665935  0.04210789  0.99973052    -0.74900
O87         O  0.52234355  0.04356481  0.95877734    -0.74900
O88         O  0.52448039  0.03811755  0.04291494    -0.75000
O89         O  0.48160382  0.95346638  0.04100347    -0.74900
O90         O  0.48158713  0.95899382  0.95697385    -0.74900
O91         O  0.54533595  0.95748658  0.99826551    -0.74800
O92         O  0.41804296  0.95510696  0.99953072    -0.74900
Ni93       Ni  0.52462884  0.04387375  0.00094147     1.25400
Ni94       Ni  0.48017530  0.95325950  0.99888596     1.25400
C95         C  0.41775618  0.99702981  0.00102714     0.87400
C96         C  0.58699996  0.00018362  0.99896075     0.87300
C97         C  0.50180055  0.00214106  0.94397980     0.87300
C98         C  0.50371843  0.99483620  0.05579113     0.87500
O99         O  0.40975666  0.45871345  0.99851438    -0.74800
O100        O  0.53696595  0.46126870  0.99696973    -0.74900
O101        O  0.47454381  0.45937416  0.03989736    -0.74900
O102        O  0.47237227  0.46042566  0.95580479    -0.75000
O103        O  0.51492887  0.54506610  0.95595473    -0.74900
O104        O  0.51436006  0.54395058  0.04022078    -0.74900
O105        O  0.57837887  0.54588672  0.99818821    -0.74800
O106        O  0.45090525  0.54334889  0.99774442    -0.74900
Ni107      Ni  0.47194375  0.45696779  0.99780695     1.25400
Ni108      Ni  0.51610050  0.54760548  0.99807181     1.25400
C109        C  0.40928483  0.50061206  0.99803287     0.87400
C110        C  0.57865239  0.50390410  0.99730169     0.87300
C111        C  0.49467790  0.50146821  0.05399478     0.87300
C112        C  0.49363649  0.50281465  0.94197093     0.87500
O113        O  0.04841691  0.95651271  0.66669410    -0.74800
O114        O  0.04923088  0.08273555  0.66861163    -0.74900
O115        O  0.04978455  0.01832883  0.70967855    -0.74900
O116        O  0.04770793  0.02073273  0.62561980    -0.75000
O117        O  0.96295412  0.97955925  0.62598543    -0.74900
O118        O  0.96501015  0.97562322  0.71000454    -0.74900
O119        O  0.96446856  0.04076494  0.66971172    -0.74800
O120        O  0.96362580  0.91435169  0.66640033    -0.74900
Ni121      Ni  0.05178406  0.02105317  0.66762421     1.25400
Ni122      Ni  0.96098301  0.97605785  0.66804438     1.25400
C123        C  0.00598283  0.91462161  0.66619145     0.87400
C124        C  0.00700288  0.08262668  0.66957206     0.87300
C125        C  0.00764264  0.99657696  0.72372869     0.87300
C126        C  0.00507799  0.00073071  0.61190158     0.87500
O127        O  0.04867719  0.58261969  0.66673833    -0.74800
O128        O  0.04787467  0.45635667  0.66777380    -0.74900
O129        O  0.04702958  0.51811369  0.62514018    -0.74900
O130        O  0.04910340  0.52037466  0.70949139    -0.75000
O131        O  0.96437028  0.47641358  0.70968796    -0.74900
O132        O  0.96223102  0.47908211  0.62572414    -0.74900
O133        O  0.96311797  0.41426655  0.66658950    -0.74800
O134        O  0.96397483  0.54079008  0.66875814    -0.74900
Ni135      Ni  0.05121675  0.52088728  0.66727142     1.25400
Ni136      Ni  0.96041734  0.47609408  0.66772121     1.25400
C137        C  0.00648431  0.58259142  0.66769100     0.87400
C138        C  0.00546341  0.41445591  0.66712731     0.87300
C139        C  0.00422646  0.49868336  0.61162467     0.87300
C140        C  0.00687893  0.49847216  0.72352070     0.87500
O141        O  0.45075069  0.04427036  0.66728831    -0.74800
O142        O  0.45592206  0.92095165  0.66568043    -0.74900
O143        O  0.45425855  0.98206063  0.70864308    -0.74900
O144        O  0.45249993  0.98362166  0.62437180    -0.75000
O145        O  0.53739859  0.02527502  0.62413070    -0.74900
O146        O  0.53887962  0.02842806  0.70824581    -0.74900
O147        O  0.54064938  0.96525580  0.66692455    -0.74800
O148        O  0.53541605  0.08857888  0.66554510    -0.74900
Ni149      Ni  0.45032323  0.98106361  0.66651898     1.25400
Ni150      Ni  0.54109270  0.02852796  0.66619044     1.25400
C151        C  0.49238953  0.08690920  0.66656983     0.87400
C152        C  0.49898095  0.92262660  0.66611764     0.87300
C153        C  0.49684704  0.00568760  0.72236852     0.87300
C154        C  0.49475932  0.00408125  0.61044824     0.87500
O155        O  0.45028353  0.41976340  0.66279666    -0.74800
O156        O  0.45447007  0.54783156  0.66515295    -0.74900
O157        O  0.45307539  0.48618986  0.62201825    -0.74900
O158        O  0.45155184  0.48143107  0.70601900    -0.75000
O159        O  0.53636410  0.52531960  0.70658467    -0.74900
O160        O  0.53774637  0.52251052  0.62271938    -0.74900
O161        O  0.53916926  0.58812834  0.66347007    -0.74800
O162        O  0.53494025  0.46014571  0.66591205    -0.74900
Ni163      Ni  0.44927412  0.48235234  0.66396221     1.25400
Ni164      Ni  0.54008949  0.52550162  0.66467084     1.25400
C165        C  0.49198454  0.41888568  0.66452051     0.87400
C166        C  0.49749865  0.58914536  0.66440524     0.87300
C167        C  0.49566478  0.50437978  0.60864832     0.87300
C168        C  0.49377529  0.50310439  0.72015217     0.87500
C169        C  0.45725628  0.78337964  0.65747903    -0.11200
C170        C  0.50145422  0.78201969  0.66527644     0.05900
C171        C  0.54545185  0.82793231  0.67279655    -0.10000
C172        C  0.54499823  0.87377159  0.67275208    -0.11600
C173        C  0.50034784  0.87462338  0.66556441    -0.01400
C174        C  0.45661503  0.82894997  0.65782977    -0.10500
C175        C  0.50117285  0.73280454  0.66559375     0.05900
H176        H  0.58009443  0.82841978  0.67926284     0.07900
H177        H  0.57932275  0.90837916  0.67883084     0.11300
H178        H  0.42180525  0.82843077  0.65176758     0.11600
H179        H  0.42300444  0.74916894  0.65077031     0.07900
C180        C  0.45701863  0.68759111  0.67372413    -0.11200
C181        C  0.45579048  0.64107311  0.67308962    -0.10500
C182        C  0.49898217  0.63857370  0.66482347    -0.01400
C183        C  0.54349496  0.68369911  0.65719219    -0.11600
C184        C  0.54449521  0.73023378  0.65741641    -0.10000
H185        H  0.42324771  0.68805643  0.68088668     0.07900
H186        H  0.42111601  0.60709267  0.67942049     0.11600
H187        H  0.57733642  0.68295435  0.65062309     0.11300
H188        H  0.57901167  0.76405708  0.65062048     0.07900
C189        C  0.44402515  0.18034872  0.67008492    -0.11200
C190        C  0.48940931  0.22718414  0.66724349     0.05900
C191        C  0.53547784  0.22714222  0.66434291    -0.10000
C192        C  0.53629346  0.18168171  0.66432975    -0.11600
C193        C  0.49101554  0.13491932  0.66693877    -0.01400
C194        C  0.44480069  0.13469778  0.66986341    -0.10500
C195        C  0.48909057  0.27599637  0.66706074     0.05900
H196        H  0.57109530  0.26233264  0.66154612     0.07900
H197        H  0.57252253  0.18323927  0.66197814     0.11300
H198        H  0.40924885  0.09928861  0.67208912     0.11600
H199        H  0.40791960  0.17894069  0.67280469     0.07900
C200        C  0.44937055  0.27974225  0.65345000    -0.11200
C201        C  0.44999741  0.32606892  0.65276836    -0.10500
C202        C  0.49072724  0.36973289  0.66528628    -0.01400
C203        C  0.53038354  0.36612171  0.67885486    -0.11600
C204        C  0.52931553  0.31972786  0.67999961    -0.10000
H205        H  0.41819293  0.24707996  0.64282087     0.07900
H206        H  0.41913400  0.32797111  0.64199454     0.11600
H207        H  0.56188990  0.39905190  0.68900719     0.11300
H208        H  0.55999758  0.31811860  0.69127765     0.07900
C209        C  0.05044662  0.81890162  0.67331363    -0.11200
C210        C  0.00665291  0.77331810  0.66526512     0.05900
C211        C  0.96268084  0.77491191  0.65711874    -0.10000
C212        C  0.96230821  0.82070284  0.65749269    -0.11600
C213        C  0.00614058  0.86608557  0.66556570    -0.01400
C214        C  0.05030068  0.86474926  0.67326255    -0.10500
C215        C  0.00667155  0.72434201  0.66577881     0.05900
H216        H  0.92853213  0.74079988  0.65019245     0.07900
H217        H  0.92785491  0.82065419  0.65119269     0.11300
H218        H  0.08455883  0.89905638  0.67978472     0.11600
H219        H  0.08477809  0.81914486  0.68025715     0.07900
C220        C  0.05063619  0.72244888  0.65830345    -0.11200
C221        C  0.05079186  0.67657584  0.65926349    -0.10500
C222        C  0.00676911  0.63137372  0.66731756    -0.01400
C223        C  0.96276795  0.63308438  0.67464541    -0.11600
C224        C  0.96282090  0.67904154  0.67407328    -0.10000
H225        H  0.08488237  0.75633340  0.65129810     0.07900
H226        H  0.08515404  0.67639670  0.65327197     0.11600
H227        H  0.92836456  0.59893872  0.68113407     0.11300
H228        H  0.92854462  0.67908892  0.68058120     0.07900
C229        C  0.96209395  0.27412845  0.66079021    -0.11200
C230        C  0.00654682  0.27315484  0.66855407     0.05900
C231        C  0.05061417  0.31929279  0.67546022    -0.10000
C232        C  0.05029180  0.36505888  0.67463852    -0.11600
C233        C  0.00571021  0.36586212  0.66726389    -0.01400
C234        C  0.96160274  0.31989834  0.66032109    -0.10500
C235        C  0.00700962  0.22436432  0.66944516     0.05900
H236        H  0.08536165  0.32007401  0.68203328     0.07900
H237        H  0.08484259  0.39978632  0.68026822     0.11300
H238        H  0.92677052  0.31934254  0.65428491     0.11600
H239        H  0.92768415  0.23952888  0.65473723     0.07900
C240        C  0.96385794  0.17917508  0.67865502    -0.11200
C241        C  0.96392161  0.13322024  0.67885250    -0.10500
C242        C  0.00736301  0.13145257  0.67020471    -0.01400
C243        C  0.05089199  0.17665244  0.66161020    -0.11600
C244        C  0.05058915  0.22246634  0.66102403    -0.10000
H245        H  0.92998755  0.17928750  0.68595679     0.07900
H246        H  0.93003529  0.09910942  0.68592059     0.11600
H247        H  0.08483859  0.17643942  0.65469668     0.11300
H248        H  0.08432139  0.25626404  0.65336589     0.07900
C249        C  0.45086029  0.46605366  0.79874170    -0.11200
C250        C  0.49365448  0.50209179  0.81460628     0.05900
C251        C  0.53646686  0.53814650  0.79892242    -0.10000
C252        C  0.53639051  0.53840119  0.76826030    -0.11600
C253        C  0.49355694  0.50259347  0.75254109    -0.01400
C254        C  0.45080250  0.46631290  0.76803272    -0.10500
C255        C  0.49366082  0.50229920  0.84730886     0.05900
H256        H  0.57049964  0.56595179  0.81033038     0.07900
H257        H  0.56986752  0.56690247  0.75682410     0.11300
H258        H  0.41741452  0.43803684  0.75641400     0.11600
H259        H  0.41688162  0.43801795  0.81003976     0.07900
C260        C  0.51907169  0.54828999  0.86298208    -0.11200
C261        C  0.51924509  0.54852640  0.89368519    -0.10500
C262        C  0.49363343  0.50277600  0.90946088    -0.01400
C263        C  0.46811292  0.45679494  0.89387603    -0.11600
C264        C  0.46828772  0.45656361  0.86318668    -0.10000
H265        H  0.53834572  0.58441497  0.85153408     0.07900
H266        H  0.53930226  0.58457490  0.90504822     0.11600
H267        H  0.44812114  0.42089895  0.90537492     0.11300
H268        H  0.44902648  0.42027576  0.85191599     0.07900
C269        C  0.52944452  0.05155460  0.86569708    -0.11200
C270        C  0.49997056  0.00688633  0.84949509     0.05900
C271        C  0.47132880  0.96076875  0.86453019    -0.10000
C272        C  0.47215148  0.95925030  0.89520032    -0.11600
C273        C  0.50128432  0.00395142  0.91149003    -0.01400
C274        C  0.52986237  0.05016661  0.89643200    -0.10500
C275        C  0.49915014  0.00805675  0.81696991     0.05900
H276        H  0.44877968  0.92573516  0.85251587     0.07900
H277        H  0.44978297  0.92309199  0.90612530     0.11300
H278        H  0.55272608  0.08518316  0.90836389     0.11600
H279        H  0.55163345  0.08762003  0.85458107     0.07900
C280        C  0.45284467  0.98199942  0.80162637    -0.11200
C281        C  0.45203517  0.98155332  0.77091406    -0.10500
C282        C  0.49758635  0.00690004  0.75491173    -0.01400
C283        C  0.54389910  0.03347219  0.77032041    -0.11600
C284        C  0.54462954  0.03417662  0.80104860    -0.10000
H285        H  0.41721099  0.96210207  0.81343669     0.07900
H286        H  0.41571444  0.96108711  0.75972452     0.11600
H287        H  0.57963240  0.05348392  0.75866208     0.11300
H288        H  0.58087324  0.05425585  0.81240186     0.07900
C289        C  0.76961426  0.46007291  0.01008837    -0.11200
C290        C  0.76846974  0.50244250  0.99850836     0.05900
C291        C  0.81376467  0.54353399  0.98775457    -0.10000
C292        C  0.85904719  0.54216333  0.98845902    -0.11600
C293        C  0.85991352  0.49947423  0.99957665    -0.01400
C294        C  0.81479493  0.45844313  0.01044232    -0.10500
C295        C  0.72012961  0.50351337  0.99743685     0.05900
H296        H  0.81405411  0.57637888  0.97833228     0.07900
H297        H  0.89333849  0.57427525  0.97979684     0.11300
H298        H  0.81459564  0.42542425  0.01952990     0.11600
H299        H  0.73555060  0.42821192  0.01913887     0.07900
C300        C  0.67419724  0.45926228  0.99056439    -0.11200
C301        C  0.62844488  0.45964967  0.99030907    -0.10500
C302        C  0.62753549  0.50433994  0.99672298    -0.01400
C303        C  0.67354576  0.54897938  0.00291276    -0.11600
C304        C  0.71935011  0.54848924  0.00337058    -0.10000
H305        H  0.67362661  0.42435233  0.98521616     0.07900
H306        H  0.59367537  0.42478253  0.98503746     0.11600
H307        H  0.67403684  0.58393892  0.00792810     0.11300
H308        H  0.75410235  0.58319902  0.00900020     0.07900
C309        C  0.21460297  0.53974582  0.00896440    -0.11200
C310        C  0.21672241  0.49709548  0.99904679     0.05900
C311        C  0.17126087  0.45361655  0.99040152    -0.10000
C312        C  0.12486370  0.45281129  0.99174462    -0.11600
C313        C  0.12295155  0.49561852  0.00144620    -0.01400
C314        C  0.16831297  0.53911565  0.01003374    -0.10500
C315        C  0.26601963  0.49775272  0.99809691     0.05900
H316        H  0.17161191  0.42042603  0.98220676     0.07900
H317        H  0.09054444  0.41891258  0.98466728     0.11300
H318        H  0.16798991  0.57254622  0.01777277     0.11600
H319        H  0.24877476  0.57358499  0.01630767     0.07900
C320        C  0.31101411  0.54195718  0.98980318    -0.11200
C321        C  0.35753141  0.54290841  0.98978287    -0.10500
C322        C  0.36005059  0.49957009  0.99779084    -0.01400
C323        C  0.31504242  0.45514941  0.00561408    -0.11600
C324        C  0.26863378  0.45434940  0.00590415    -0.10000
H325        H  0.31023482  0.57575714  0.98311981     0.07900
H326        H  0.39153601  0.57754394  0.98328300     0.11600
H327        H  0.31580780  0.42124390  0.01200166     0.11300
H328        H  0.23483058  0.41985215  0.01284172     0.07900
C329        C  0.97303820  0.45371060  0.86580039    -0.11200
C330        C  0.00376887  0.49918400  0.85061417     0.05900
C331        C  0.03161351  0.54439808  0.86658005    -0.10000
C332        C  0.02809108  0.54422950  0.89724908    -0.11600
C333        C  0.99714558  0.49868738  0.91249446    -0.01400
C334        C  0.96995027  0.45337899  0.89642970    -0.10500
C335        C  0.00522933  0.49941569  0.81811984     0.05900
H336        H  0.05526872  0.57996924  0.85527008     0.07900
H337        H  0.04967149  0.57970713  0.90899618     0.11300
H338        H  0.94605406  0.41767608  0.90748160     0.11600
H339        H  0.95153293  0.41831038  0.85391343     0.07900
C340        C  0.05170818  0.52258143  0.80299193    -0.11200
C341        C  0.05248518  0.52202684  0.77221844    -0.10500
C342        C  0.00673964  0.49873380  0.75608181    -0.01400
C343        C  0.96035093  0.47590774  0.77137904    -0.11600
C344        C  0.95964513  0.47610920  0.80203637    -0.10000
H345        H  0.08738330  0.54051997  0.81502447     0.07900
H346        H  0.08884336  0.53985630  0.76108249     0.11600
H347        H  0.92441110  0.45789869  0.75966118     0.11300
H348        H  0.92331109  0.45848460  0.81326568     0.07900
C349        C  0.68486607  0.95821063  0.99330294    -0.11200
C350        C  0.72992424  0.00267275  0.00134112     0.05900
C351        C  0.72743105  0.04641418  0.00824290    -0.10000
C352        C  0.68113519  0.04576892  0.00707316    -0.11600
C353        C  0.63614850  0.00117638  0.99931274    -0.01400
C354        C  0.63848849  0.95741342  0.99247707    -0.10500
C355        C  0.77922992  0.00334733  0.00224005     0.05900
H356        H  0.76121795  0.08111366  0.01499567     0.07900
H357        H  0.68045662  0.07997932  0.01270929     0.11300
H358        H  0.60444184  0.92252275  0.98623310     0.11600
H359        H  0.68546515  0.92414437  0.98726701     0.07900
C360        C  0.78125324  0.96023427  0.01148366    -0.11200
C361        C  0.82702716  0.95986646  0.01102432    -0.10500
C362        C  0.87204336  0.00288288  0.00171124    -0.01400
C363        C  0.87052815  0.04656391  0.99329019    -0.11600
C364        C  0.82454766  0.04669166  0.99335610    -0.10000
H365        H  0.74736378  0.92661235  0.01920871     0.07900
H366        H  0.82722388  0.92599771  0.01812646     0.11600
H367        H  0.90469514  0.08029014  0.98602163     0.11300
H368        H  0.82436498  0.08037133  0.98577355     0.07900
C369        C  0.18067492  0.95219866  0.01071877    -0.11200
C370        C  0.22603750  0.99514524  0.00149757     0.05900
C371        C  0.22433769  0.03831381  0.99203668    -0.10000
C372        C  0.17866270  0.03884639  0.99206532    -0.11600
C373        C  0.13341685  0.99596824  0.00119664    -0.01400
C374        C  0.13475803  0.95252271  0.01041537    -0.10500
C375        C  0.27502666  0.99519732  0.00171158     0.05900
H376        H  0.25835638  0.07170120  0.98421079     0.07900
H377        H  0.17866134  0.07263984  0.98456506     0.11300
H378        H  0.10045666  0.91905758  0.01779532     0.11600
H379        H  0.18076926  0.91861211  0.01855331     0.07900
C380        C  0.32048888  0.03929460  0.00960354    -0.11200
C381        C  0.36676676  0.03988820  0.00925110    -0.10500
C382        C  0.36866303  0.99627198  0.00134326    -0.01400
C383        C  0.32325470  0.95202597  0.99363230    -0.11600
C384        C  0.27697649  0.95157498  0.99372135    -0.10000
H385        H  0.32027875  0.07325152  0.01636016     0.07900
H386        H  0.40110378  0.07450996  0.01548265     0.11600
H387        H  0.32356563  0.91799301  0.98718882     0.11300
H388        H  0.24275445  0.91718420  0.98704309     0.07900
C389        C  0.97433692  0.95342468  0.86615645    -0.11200
C390        C  0.00787847  0.99738361  0.85053709     0.05900
C391        C  0.04009874  0.04208106  0.86601570    -0.10000
C392        C  0.03832363  0.04292216  0.89669295    -0.11600
C393        C  0.00478977  0.99883563  0.91237018    -0.01400
C394        C  0.97300764  0.95403218  0.89679893    -0.10500
C395        C  0.00820064  0.99676267  0.81811053     0.05900
H396        H  0.06596906  0.07651171  0.85434218     0.07900
H397        H  0.06340089  0.07792805  0.90811730     0.11300
H398        H  0.94685662  0.91952265  0.90826542     0.11600
H399        H  0.94937793  0.91845085  0.85461134     0.07900
C400        C  0.05410314  0.01620008  0.80262948    -0.11200
C401        C  0.05402151  0.01567837  0.77190880    -0.10500
C402        C  0.00801689  0.99602580  0.75619626    -0.01400
C403        C  0.96216556  0.97649649  0.77181793    -0.11600
C404        C  0.96227748  0.97677104  0.80246425    -0.10000
H405        H  0.08995842  0.03137844  0.81434511     0.07900
H406        H  0.08996915  0.03077211  0.76047411     0.11600
H407        H  0.92610502  0.96134790  0.76036382     0.11300
H408        H  0.92644545  0.96204464  0.81401137     0.07900
C409        C  0.45808584  0.49941826  0.46577887    -0.11200
C410        C  0.50036713  0.50614452  0.48219748     0.05900
C411        C  0.54382042  0.51295802  0.46718618    -0.10000
C412        C  0.54449643  0.51197678  0.43652024    -0.11600
C413        C  0.50231917  0.50556201  0.42036378    -0.01400
C414        C  0.45932893  0.49978335  0.43514728    -0.10500
C415        C  0.49894653  0.50556917  0.51479799     0.05900
H416        H  0.57750509  0.51949746  0.47906958     0.07900
H417        H  0.57828663  0.51720408  0.42540901     0.11300
H418        H  0.42628366  0.49440653  0.42299430     0.11600
H419        H  0.42361565  0.49301832  0.47652835     0.07900
C420        C  0.47234464  0.52529626  0.53002239    -0.11200
C421        C  0.47047286  0.52401575  0.56067085    -0.10500
C422        C  0.49635361  0.50439488  0.57655486    -0.01400
C423        C  0.52329241  0.48510670  0.56165540    -0.11600
C424        C  0.52397267  0.48500416  0.53100441    -0.10000
H425        H  0.45352126  0.54234864  0.51834048     0.07900
H426        H  0.44989896  0.53943847  0.57200754     0.11600
H427        H  0.54291965  0.46933053  0.57372193     0.11300
H428        H  0.54370346  0.46829187  0.52005445     0.07900
C429        C  0.50553917  0.46557233  0.19746902    -0.11200
C430        C  0.49612383  0.50001010  0.18172264     0.05900
C431        C  0.48787953  0.53484304  0.19768746    -0.10000
C432        C  0.48972188  0.53570751  0.22837205    -0.11600
C433        C  0.49948728  0.50155485  0.24395849    -0.01400
C434        C  0.50711976  0.46629977  0.22821067    -0.10500
C435        C  0.49556994  0.50016453  0.14888793     0.05900
H436        H  0.47941007  0.56126462  0.18655138     0.07900
H437        H  0.48361716  0.56333433  0.23990055     0.11300
H438        H  0.51431327  0.43920976  0.23965708     0.11600
H439        H  0.51274061  0.43855384  0.18609271     0.07900
C440        C  0.51221368  0.54576470  0.13320409    -0.11200
C441        C  0.51178541  0.54610381  0.10248942    -0.10500
C442        C  0.49511943  0.50098015  0.08657148    -0.01400
C443        C  0.47877899  0.45540312  0.10209959    -0.11600
C444        C  0.47878238  0.45495720  0.13285079    -0.10000
H445        H  0.52644621  0.58157753  0.14458602     0.07900
H446        H  0.52468192  0.58193720  0.09118948     0.11600
H447        H  0.46579795  0.41994149  0.09048930     0.11300
H448        H  0.46487660  0.41888899  0.14399456     0.07900
C449        C  0.52318914  0.98395415  0.53264965    -0.11200
C450        C  0.49484644  0.00047279  0.51599178     0.05900
C451        C  0.46603149  0.01783393  0.53123058    -0.10000
C452        C  0.46513282  0.01799198  0.56198112    -0.11600
C453        C  0.49447806  0.00271375  0.57816829    -0.01400
C454        C  0.52375876  0.98603894  0.56335094    -0.10500
C455        C  0.49558007  0.99982273  0.48305543     0.05900
H456        H  0.44473257  0.03215646  0.51962549     0.07900
H457        H  0.44258936  0.03135902  0.57313850     0.11300
H458        H  0.54614123  0.97352138  0.57555967     0.11600
H459        H  0.54461103  0.96877042  0.52220043     0.07900
C460        C  0.53767400  0.00346981  0.46783191    -0.11200
C461        C  0.53796857  0.00188017  0.43714422    -0.10500
C462        C  0.49707807  0.99834875  0.42080726    -0.01400
C463        C  0.45551398  0.99580814  0.43564631    -0.11600
C464        C  0.45434292  0.99565564  0.46639316    -0.10000
H465        H  0.57089451  0.00828332  0.47938727     0.07900
H466        H  0.57077957  0.00446482  0.42613537     0.11600
H467        H  0.42332366  0.99260251  0.42347869     0.11300
H468        H  0.42059418  0.99141707  0.47689626     0.07900
C469        C  0.46747763  0.94975002  0.13412307    -0.11200
C470        C  0.50774343  0.98882483  0.14995113     0.05900
C471        C  0.54744088  0.02929193  0.13466485    -0.10000
C472        C  0.54601017  0.03145020  0.10397753    -0.11600
C473        C  0.50548728  0.99252533  0.08812921    -0.01400
C474        C  0.46666341  0.95124615  0.10343164    -0.10500
C475        C  0.50678374  0.98880705  0.18239023     0.05900
H476        H  0.57870722  0.05987342  0.14652947     0.07900
H477        H  0.57666427  0.06341052  0.09261654     0.11300
H478        H  0.43509095  0.92079236  0.09169710     0.11600
H479        H  0.43653676  0.91814949  0.14558641     0.07900
C480        C  0.46506543  0.98641183  0.19703016    -0.11200
C481        C  0.46446167  0.98832378  0.22768465    -0.10500
C482        C  0.50501960  0.99141442  0.24426074    -0.01400
C483        C  0.54642385  0.99287267  0.22961899    -0.11600
C484        C  0.54759792  0.99227289  0.19885853    -0.10000
H485        H  0.43336672  0.98399917  0.18467387     0.07900
H486        H  0.43197605  0.98682320  0.23846824     0.11600
H487        H  0.57818458  0.99539500  0.24193644     0.11300
H488        H  0.58012034  0.99411345  0.18789304     0.07900
C489        C  0.03273262  0.48370334  0.53294333    -0.11200
C490        C  0.99965516  0.49526361  0.51725044     0.05900
C491        C  0.96801898  0.50807415  0.53329058    -0.10000
C492        C  0.96920753  0.50879160  0.56403868    -0.11600
C493        C  0.00308091  0.49828266  0.57932984    -0.01400
C494        C  0.03507066  0.48612581  0.56360027    -0.10500
C495        C  0.99883296  0.49458285  0.48441369     0.05900
H496        H  0.94285770  0.51829371  0.52224586     0.07900
H497        H  0.94440463  0.51854405  0.57587313     0.11300
H498        H  0.06086297  0.47715122  0.57505900     0.11600
H499        H  0.05656531  0.47210617  0.52168775     0.07900
C500        C  0.04300865  0.50588322  0.46848703    -0.11200
C501        C  0.04243135  0.50478318  0.43781294    -0.10500
C502        C  0.99831791  0.49418074  0.42230610    -0.01400
C503        C  0.95429397  0.48360981  0.43783340    -0.21200
C504        C  0.95426941  0.48299476  0.46859538    -0.10000
H505        H  0.07847092  0.51646909  0.47955885     0.07900
H506        H  0.07695149  0.51360058  0.42614716     0.11600
H507        H  0.91971151  0.47484015  0.42616514     0.11300
H508        H  0.91915609  0.47291720  0.47983531     0.07900
C509        C  0.77237355  0.32002537  0.33936540    -0.11200
C510        C  0.77029107  0.27301646  0.33658264     0.05900
C511        C  0.81593009  0.27238794  0.33283488    -0.10000
C512        C  0.86254367  0.31763247  0.33202095    -0.11600
C513        C  0.86464294  0.36462042  0.33479163    -0.01400
C514        C  0.81902787  0.36535692  0.33844536    -0.10500
C515        C  0.72088739  0.22465791  0.33717711     0.05900
H516        H  0.81557334  0.23686410  0.33008755     0.07900
H517        H  0.89698619  0.31576597  0.32902442     0.11300
H518        H  0.81938225  0.40089585  0.34082920     0.11600
H519        H  0.73789028  0.32176539  0.34262107     0.07900
C520        C  0.71689368  0.18172956  0.35139470    -0.11200
C521        C  0.67166666  0.13518274  0.35025846    -0.10500
C522        C  0.62914164  0.13070384  0.33524961    -0.01400
C523        C  0.63228693  0.17390181  0.32194637    -0.11600
C524        C  0.67785138  0.22042289  0.32273134    -0.10000
H525        H  0.74899716  0.18406966  0.36338070     0.07900
H526        H  0.66984860  0.10272025  0.36122459     0.11600
H527        H  0.59988363  0.17136326  0.31022990     0.11300
H528        H  0.67980701  0.25263703  0.31136559     0.07900
C529        C  0.32345170  0.76833880  0.34089588    -0.11200
C530        C  0.27738817  0.76659106  0.33379862     0.05900
C531        C  0.27877230  0.81193725  0.32583869    -0.10000
C532        C  0.32468232  0.85784747  0.32527811    -0.11600
C533        C  0.37065893  0.85969528  0.33240384    -0.01400
C534        C  0.36963327  0.81440613  0.34009520    -0.10500
C535        C  0.22802917  0.71788010  0.33447169     0.05900
H536        H  0.24424304  0.81195960  0.31962425     0.07900
H537        H  0.32414036  0.89193937  0.31904788     0.11300
H538        H  0.40443493  0.81467403  0.34591786     0.11600
H539        H  0.32374088  0.73429633  0.34749421     0.07900
C540        C  0.22479500  0.67230480  0.32513278    -0.11200
C541        C  0.17817458  0.62683440  0.32522695    -0.10500
C542        C  0.13360371  0.62599371  0.33439619    -0.01400
C543        C  0.13669937  0.67144664  0.34369577    -0.11600
C544        C  0.18338365  0.71676308  0.34393959    -0.10000
H545        H  0.25822991  0.67187318  0.31720914     0.07900
H546        H  0.17688112  0.59249621  0.31771033     0.11600
H547        H  0.10306426  0.67189474  0.35114683     0.11300
H548        H  0.18453487  0.75087963  0.35180412     0.07900
C549        C  0.02046130  0.47270287  0.19880143    -0.11200
C550        C  0.99558841  0.49440249  0.18369971     0.05900
C551        C  0.97237528  0.51658825  0.19970523    -0.10000
C552        C  0.97361995  0.51682041  0.23035448    -0.11600
C553        C  0.99848895  0.49521753  0.24564439    -0.01400
C554        C  0.02212911  0.47329266  0.22955012    -0.10500
C555        C  0.99373483  0.49422004  0.15128327     0.05900
H556        H  0.95265497  0.53318046  0.18842861     0.07900
H557        H  0.95481407  0.53379516  0.24208533     0.11300
H558        H  0.04179838  0.45659498  0.24067729     0.11600
H559        H  0.03904568  0.45578484  0.18675862     0.07900
C560        C  0.00889369  0.53959993  0.13591396    -0.11200
C561        C  0.00682512  0.53968975  0.10526562    -0.10500
C562        C  0.98907304  0.49428614  0.08939915    -0.01400
C563        C  0.97305126  0.44866730  0.10488573    -0.11600
C564        C  0.97577769  0.44874833  0.13557765    -0.10000
H565        H  0.02293946  0.57511009  0.14767167     0.07900
H566        H  0.01934637  0.57546122  0.09398526     0.11600
H567        H  0.95903797  0.41306382  0.09329646     0.11300
H568        H  0.96330319  0.41317767  0.14712953     0.07900
C569        C  0.05054219  0.02441624  0.53305035    -0.11200
C570        C  0.00458241  0.00425157  0.51733789     0.05900
C571        C  0.95862808  0.98337037  0.53297856    -0.10000
C572        C  0.95864659  0.98220787  0.56371454    -0.11600
C573        C  0.00469035  0.00212763  0.57940143    -0.01400
C574        C  0.05060206  0.02339435  0.56372254    -0.10500
C575        C  0.00472616  0.00452872  0.48473959     0.05900
H576        H  0.92256882  0.96709578  0.52142286     0.07900
H577        H  0.92266790  0.96556750  0.57514251     0.11300
H578        H  0.08674589  0.03922092  0.57514605     0.11600
H579        H  0.08657495  0.04140647  0.52159523     0.07900
C580        C  0.97255391  0.01687725  0.46891584    -0.11200
C581        C  0.97287786  0.01718357  0.43819518    -0.10500
C582        C  0.00513261  0.00480073  0.42265900    -0.01400
C583        C  0.03723443  0.99236022  0.43849657    -0.11600
C584        C  0.03713487  0.99237552  0.46920113    -0.10000
H585        H  0.94754941  0.02691479  0.48031894     0.07900
H586        H  0.94762452  0.02685754  0.42661073     0.11600
H587        H  0.06255863  0.98266842  0.42715860     0.11300
H588        H  0.06194602  0.98213847  0.48082038     0.07900
C589        C  0.82626573  0.77769897  0.34438971    -0.11200
C590        C  0.78119075  0.77485654  0.33392156     0.05900
C591        C  0.78336706  0.81940632  0.32334444    -0.10000
C592        C  0.82893342  0.86569519  0.32377273    -0.11600
C593        C  0.87379201  0.86854972  0.33433695    -0.01400
C594        C  0.87215133  0.82403506  0.34440495    -0.10500
C595        C  0.73193312  0.72599026  0.33412089     0.05900
H596        H  0.74978283  0.81854646  0.31439423     0.07900
H597        H  0.82915985  0.89915441  0.31548857     0.11300
H598        H  0.90622563  0.82519217  0.35279068     0.11600
H599        H  0.82595899  0.74440238  0.35302987     0.07900
C600        C  0.72986055  0.67959131  0.32820077    -0.11200
C601        C  0.68321161  0.63407234  0.32774405    -0.10500
C602        C  0.63755205  0.63402094  0.33295339    -0.01400
C603        C  0.63966618  0.68024475  0.33912186    -0.11600
C604        C  0.68621395  0.72555359  0.33987718    -0.10000
H605        H  0.76421299  0.67848035  0.32334312     0.07900
H606        H  0.68285732  0.59909117  0.32295033     0.11600
H607        H  0.60524653  0.68144459  0.34362423     0.11300
H608        H  0.68632938  0.76024940  0.34523463     0.07900
C609        C  0.31860347  0.28264991  0.34162428    -0.11200
C610        C  0.27425267  0.28133163  0.33128111     0.05900
C611        C  0.27703122  0.32691602  0.32229374    -0.10000
C612        C  0.32326888  0.37271416  0.32331723    -0.11600
C613        C  0.36773212  0.37374488  0.33312265    -0.01400
C614        C  0.36483507  0.32831269  0.34243008    -0.10500
C615        C  0.22538368  0.23248461  0.33018725     0.05900
H616        H  0.24357884  0.32705091  0.31397114     0.07900
H617        H  0.32442148  0.40709328  0.31588823     0.11300
H618        H  0.39839138  0.32805426  0.35047907     0.11600
H619        H  0.31748243  0.24845890  0.34932266     0.07900
C620        C  0.22431600  0.18766731  0.32141878    -0.11200
C621        C  0.17900376  0.14109245  0.32211621    -0.10500
C622        C  0.13362788  0.13837633  0.33136787    -0.01400
C623        C  0.13425648  0.18336164  0.33920239    -0.11600
C624        C  0.17970704  0.22993858  0.33871302    -0.10000
H625        H  0.25870080  0.18858832  0.31404761     0.07900
H626        H  0.17949234  0.10724997  0.31540971     0.11600
H627        H  0.09981106  0.18243265  0.34636118     0.11300
H628        H  0.17933689  0.26368628  0.34577722     0.07900
C629        C  0.00906207  0.96518886  0.19985781    -0.11200
C630        C  0.00290704  0.00140526  0.18383652     0.05900
C631        C  0.99691447  0.03807457  0.19933588    -0.10000
C632        C  0.99691150  0.03836125  0.23003855    -0.11600
C633        C  0.00293175  0.00205122  0.24589076    -0.01400
C634        C  0.00908251  0.96553541  0.23054006    -0.10500
C635        C  0.00271853  0.00089980  0.15114856     0.05900
H636        H  0.99141177  0.06612640  0.18780594     0.07900
H637        H  0.99246141  0.06718007  0.24137887     0.11300
H638        H  0.01363549  0.93699856  0.24226811     0.11600
H639        H  0.01461101  0.93690236  0.18873358     0.07900
C640        C  0.02378500  0.04657656  0.13514566    -0.11200
C641        C  0.02349192  0.04612100  0.10446902    -0.10500
C642        C  0.00252083  0.00001135  0.08905209    -0.01400
C643        C  0.98156980  0.95431060  0.10494378    -0.11600
C644        C  0.98149615  0.95474225  0.13563378    -0.10000
H645        H  0.04126458  0.08290751  0.14629035     0.07900
H646        H  0.03992214  0.08198193  0.09284596     0.11600
H647        H  0.96506791  0.91813563  0.09368686     0.11300
H648        H  0.96411202  0.91874169  0.14716749     0.07900
loop_ 
_geom_bond_atom_site_label_1 
_geom_bond_atom_site_label_2 
_geom_bond_distance 
_geom_bond_site_symmetry_2 
_ccdc_geom_bond_type 
O1           Ni9   1.920   1_655  S
O1           C11   1.282       .  A
O2           Ni9   1.918   1_545  S
O2           C12   1.282       .  A
O3           Ni9   1.916       .  S
O3           C13   1.281   1_565  A
O4           Ni9   1.913       .  S
O4           C14   1.281   1_565  A
O5          Ni10   1.913       .  S
O5           C14   1.281   1_655  A
O6          Ni10   1.915       .  S
O6           C13   1.281   1_655  A
O7          Ni10   1.915   1_455  S
O7           C12   1.281       .  A
O8          Ni10   1.916   1_565  S
O8           C11   1.282       .  A
Ni9         Ni10   2.387   1_465  S
C11         C593   1.479       .  S
C12         C622   1.478       .  S
C13         C582   1.479       .  S
C14         C633   1.473       .  S
O15         Ni23   1.919   1_655  S
O15          C25   1.283       .  A
O16         Ni23   1.917       .  S
O16          C26   1.281       .  A
O17         Ni23   1.917       .  S
O17          C27   1.281   1_455  A
O18         Ni23   1.915       .  S
O18          C28   1.281   1_455  A
O19         Ni24   1.914       .  S
O19          C28   1.282       .  A
O20         Ni24   1.913       .  S
O20          C27   1.280       .  A
O21         Ni24   1.920   1_455  S
O21          C26   1.282       .  A
O22         Ni24   1.913       .  S
O22          C25   1.281       .  A
Ni23        Ni24   2.388   1_455  S
C25         C513   1.480       .  S
C26         C542   1.480       .  S
C27         C502   1.468       .  S
C28         C553   1.479       .  S
O29         Ni37   1.917       .  S
O29          C39   1.281       .  A
O30         Ni37   1.909   1_565  S
O30          C40   1.280       .  A
O31         Ni37   1.921       .  S
O31          C41   1.282   1_545  A
O32         Ni37   1.917       .  S
O32          C42   1.282   1_545  A
O33         Ni38   1.918       .  S
O33          C42   1.281       .  A
O34         Ni38   1.911       .  S
O34          C41   1.280       .  A
O35         Ni38   1.927       .  S
O35          C40   1.283       .  A
O36         Ni38   1.916   1_545  S
O36          C39   1.282       .  A
Ni37        Ni38   2.389   1_545  S
C39         C522   1.475       .  S
C40         C533   1.482       .  S
C41         C462   1.474       .  S
C42         C482   1.475       .  S
O43         Ni51   1.920       .  S
O43          C53   1.283       .  A
O44         Ni51   1.916       .  S
O44          C54   1.281       .  A
O45         Ni51   1.916       .  S
O45          C55   1.282       .  A
O46         Ni51   1.916       .  S
O46          C56   1.281       .  A
O47         Ni52   1.919       .  S
O47          C56   1.283       .  A
O48         Ni52   1.917       .  S
O48          C55   1.282       .  A
O49         Ni52   1.906       .  S
O49          C54   1.279       .  A
O50         Ni52   1.909       .  S
O50          C53   1.280       .  A
Ni51        Ni52   2.388       .  S
C53         C433   1.478       .  S
C54         C413   1.465       .  S
C55         C613   1.478       .  S
C56         C602   1.481       .  S
O57         Ni65   1.916   1_455  S
O57          C67   1.281       .  A
O58         Ni65   1.914       .  S
O58          C68   1.281   1_565  A
O59         Ni65   1.915   1_556  S
O59          C69   1.282   1_655  A
O60         Ni65   1.911       .  S
O60          C70   1.280   1_655  A
O61         Ni66   1.913       .  S
O61          C70   1.281   1_545  A
O62         Ni66   1.912   1_556  S
O62          C69   1.280   1_545  A
O63         Ni66   1.917   1_655  S
O63          C68   1.281       .  A
O64         Ni66   1.914       .  S
O64          C67   1.281   1_545  A
Ni65        Ni66   2.388   1_665  S
C67         C373   1.476       .  S
C68         C362   1.477       .  S
C69         C393   1.476       .  S
C70         C642   1.476   1_565  S
O71         Ni79   1.915       .  S
O71          C81   1.281       .  A
O72         Ni79   1.915   1_556  S
O72          C82   1.282       .  A
O73         Ni79   1.920   1_455  S
O73          C83   1.283       .  A
O74         Ni79   1.920       .  S
O74          C84   1.282   1_554  A
O75         Ni80   1.912   1_656  S
O75          C84   1.280       .  A
O76         Ni80   1.912       .  S
O76          C83   1.281       .  A
O77         Ni80   1.916   1_556  S
O77          C82   1.281   1_455  A
O78         Ni80   1.915       .  S
O78          C81   1.282   1_455  A
Ni79        Ni80   2.387   1_655  S
C81         C562   1.478       .  S
C82         C333   1.480       .  S
C83         C313   1.479       .  S
C84         C293   1.476       .  S
O85         Ni93   1.918       .  S
O85          C95   1.282   1_545  A
O86         Ni93   1.912   1_556  S
O86          C96   1.281       .  A
O87         Ni93   1.918   1_556  S
O87          C97   1.282       .  A
O88         Ni93   1.916       .  S
O88          C98   1.281   1_545  A
O89         Ni94   1.916   1_554  S
O89          C98   1.281       .  A
O90         Ni94   1.912       .  S
O90          C97   1.281   1_565  A
O91         Ni94   1.918       .  S
O91          C96   1.282   1_565  A
O92         Ni94   1.916       .  S
O92          C95   1.281   1_556  A
Ni93        Ni94   2.388   1_544  S
C95         C382   1.479       .  S
C96         C353   1.477       .  S
C97         C273   1.479       .  S
C98         C473   1.474       .  S
O99        Ni107   1.916       .  S
O99         C109   1.281       .  A
O100       Ni107   1.913       .  S
O100        C110   1.281       .  A
O101       Ni107   1.915   1_554  S
O101        C111   1.281       .  A
O102       Ni107   1.912       .  S
O102        C112   1.281       .  A
O103       Ni108   1.916       .  S
O103        C112   1.282       .  A
O104       Ni108   1.919   1_554  S
O104        C111   1.282       .  A
O105       Ni108   1.918       .  S
O105        C110   1.282       .  A
O106       Ni108   1.918       .  S
O106        C109   1.282       .  A
Ni107      Ni108   2.387       .  S
C109        C322   1.479       .  S
C110        C302   1.478       .  S
C111        C442   1.482       .  S
C112        C262   1.478       .  S
O113       Ni121   1.914   1_565  S
O113        C123   1.281       .  A
O114       Ni121   1.916       .  S
O114        C124   1.281       .  A
O115       Ni121   1.914       .  S
O115        C125   1.281   1_545  A
O116       Ni121   1.913       .  S
O116        C126   1.281       .  A
O117       Ni122   1.915       .  S
O117        C126   1.281   1_665  A
O118       Ni122   1.912       .  S
O118        C125   1.281   1_655  A
O119       Ni122   1.919   1_545  S
O119        C124   1.282   1_655  A
O120       Ni122   1.919       .  S
O120        C123   1.282   1_655  A
Ni121      Ni122   2.387   1_445  S
C123        C213   1.479       .  S
C124        C242   1.480       .  S
C125        C402   1.477       .  S
C126        C573   1.479       .  S
O127       Ni135   1.917       .  S
O127        C137   1.282       .  A
O128       Ni135   1.914       .  S
O128        C138   1.281       .  A
O129       Ni135   1.919       .  S
O129        C139   1.282       .  A
O130       Ni135   1.921       .  S
O130        C140   1.282       .  A
O131       Ni136   1.911       .  S
O131        C140   1.281   1_655  A
O132       Ni136   1.911       .  S
O132        C139   1.279   1_655  A
O133       Ni136   1.923       .  S
O133        C138   1.283   1_655  A
O134       Ni136   1.916       .  S
O134        C137   1.282   1_655  A
Ni135      Ni136   2.387   1_455  S
C137        C222   1.479       .  S
C138        C233   1.481       .  S
C139        C493   1.469       .  S
C140        C342   1.481       .  S
O141       Ni149   1.916   1_545  S
O141        C151   1.281       .  A
O142       Ni149   1.919       .  S
O142        C152   1.283       .  A
O143       Ni149   1.918       .  S
O143        C153   1.282   1_565  A
O144       Ni149   1.918       .  S
O144        C154   1.281   1_565  A
O145       Ni150   1.915       .  S
O145        C154   1.280       .  A
O146       Ni150   1.914       .  S
O146        C153   1.281       .  A
O147       Ni150   1.917   1_565  S
O147        C152   1.281       .  A
O148       Ni150   1.918       .  S
O148        C151   1.283       .  A
Ni149      Ni150   2.387   1_565  S
C151        C193   1.481       .  S
C152        C173   1.481       .  S
C153        C282   1.480       .  S
C154        C453   1.468       .  S
O155       Ni163   1.920       .  S
O155        C165   1.282       .  A
O156       Ni163   1.918       .  S
O156        C166   1.282       .  A
O157       Ni163   1.911       .  S
O157        C167   1.279       .  A
O158       Ni163   1.914       .  S
O158        C168   1.281       .  A
O159       Ni164   1.910       .  S
O159        C168   1.280       .  A
O160       Ni164   1.909       .  S
O160        C167   1.279       .  A
O161       Ni164   1.919       .  S
O161        C166   1.282       .  A
O162       Ni164   1.915       .  S
O162        C165   1.281       .  A
Ni163      Ni164   2.389       .  S
C165        C202   1.476       .  S
C166        C182   1.481       .  S
C167        C422   1.460       .  S
C168        C253   1.473       .  S
C169        C170   1.407       .  A
C169        C174   1.396       .  A
C169        H179   1.083       .  S
C170        C175   1.492       .  S
C170        C171   1.408       .  A
C171        C172   1.401       .  A
C171        H176   1.084       .  S
C172        C173   1.406       .  A
C172        H177   1.083       .  S
C173        C174   1.403       .  A
C174        H178   1.084       .  S
C175        C180   1.408       .  A
C175        C184   1.408       .  A
C180        C181   1.397       .  A
C180        H185   1.084       .  S
C181        C182   1.404       .  A
C181        H186   1.082       .  S
C182        C183   1.406       .  A
C183        C184   1.400       .  A
C183        H187   1.082       .  S
C184        H188   1.084       .  S
C189        C190   1.407       .  A
C189        C194   1.400       .  A
C189        H199   1.083       .  S
C190        C195   1.489       .  S
C190        C191   1.406       .  A
C191        C192   1.395       .  A
C191        H196   1.083       .  S
C192        C193   1.404       .  A
C192        H197   1.083       .  S
C193        C194   1.407       .  A
C194        H198   1.083       .  S
C195        C200   1.408       .  A
C195        C204   1.407       .  A
C200        C201   1.400       .  A
C200        H205   1.084       .  S
C201        C202   1.404       .  A
C201        H206   1.083       .  S
C202        C203   1.403       .  A
C203        C204   1.396       .  A
C203        H207   1.082       .  S
C204        H208   1.084       .  S
C209        C210   1.406       .  A
C209        C214   1.396       .  A
C209        H219   1.084       .  S
C210        C215   1.490       .  S
C210        C211   1.408   1_455  A
C211        C212   1.398       .  A
C211        H216   1.083       .  S
C212        C213   1.404   1_655  A
C212        H217   1.083       .  S
C213        C214   1.404       .  A
C214        H218   1.082       .  S
C215        C220   1.408       .  A
C215        C224   1.407   1_455  A
C220        C221   1.398       .  A
C220        H225   1.083       .  S
C221        C222   1.405       .  A
C221        H226   1.082       .  S
C222        C223   1.404   1_455  A
C223        C224   1.397       .  A
C223        H227   1.083       .  S
C224        H228   1.084       .  S
C229        C230   1.408   1_655  A
C229        C234   1.399       .  A
C229        H239   1.083       .  S
C230        C235   1.491       .  S
C230        C231   1.406       .  A
C231        C232   1.397       .  A
C231        H236   1.084       .  S
C232        C233   1.405       .  A
C232        H237   1.083       .  S
C233        C234   1.405   1_455  A
C234        H238   1.083       .  S
C235        C240   1.407   1_455  A
C235        C244   1.408       .  A
C240        C241   1.398       .  A
C240        H245   1.084       .  S
C241        C242   1.404   1_655  A
C241        H246   1.082       .  S
C242        C243   1.405       .  A
C243        C244   1.398       .  A
C243        H247   1.082       .  S
C244        H248   1.084       .  S
C249        C250   1.408       .  A
C249        C254   1.396       .  A
C249        H259   1.085       .  S
C250        C255   1.487       .  S
C250        C251   1.406       .  A
C251        C252   1.394       .  A
C251        H256   1.084       .  S
C252        C253   1.403       .  A
C252        H257   1.084       .  S
C253        C254   1.403       .  A
C254        H258   1.083       .  S
C255        C260   1.407       .  A
C255        C264   1.406       .  A
C260        C261   1.396       .  A
C260        H265   1.085       .  S
C261        C262   1.404       .  A
C261        H266   1.083       .  S
C262        C263   1.405       .  A
C263        C264   1.396       .  A
C263        H267   1.082       .  S
C264        H268   1.085       .  S
C269        C270   1.404       .  A
C269        C274   1.398       .  A
C269        H279   1.083       .  S
C270        C275   1.480       .  S
C270        C271   1.404   1_545  A
C271        C272   1.396       .  A
C271        H276   1.083       .  S
C272        C273   1.406   1_565  A
C272        H277   1.082       .  S
C273        C274   1.406       .  A
C274        H278   1.082       .  S
C275        C280   1.404   1_545  A
C275        C284   1.403       .  A
C280        C281   1.397       .  A
C280        H285   1.083       .  S
C281        C282   1.405   1_565  A
C281        H286   1.083       .  S
C282        C283   1.407       .  A
C283        C284   1.397       .  A
C283        H287   1.082       .  S
C284        H288   1.084       .  S
C289        C290   1.407   1_554  A
C289        C294   1.397       .  A
C289        H299   1.085       .  S
C290        C295   1.485       .  S
C290        C291   1.405       .  A
C291        C292   1.396       .  A
C291        H296   1.082       .  S
C292        C293   1.404       .  A
C292        H297   1.085       .  S
C293        C294   1.404   1_556  A
C294        H298   1.082       .  S
C295        C300   1.405       .  A
C295        C304   1.406   1_556  A
C300        C301   1.395       .  A
C300        H305   1.081       .  S
C301        C302   1.404       .  A
C301        H306   1.084       .  S
C302        C303   1.405   1_556  A
C303        C304   1.398       .  A
C303        H307   1.081       .  S
C304        H308   1.085       .  S
C309        C310   1.406   1_554  A
C309        C314   1.397       .  A
C309        H319   1.085       .  S
C310        C315   1.488       .  S
C310        C311   1.407       .  A
C311        C312   1.398       .  A
C311        H316   1.082       .  S
C312        C313   1.404   1_556  A
C312        H317   1.085       .  S
C313        C314   1.405       .  A
C314        H318   1.081       .  S
C315        C320   1.407       .  A
C315        C324   1.406   1_556  A
C320        C321   1.398       .  A
C320        H325   1.083       .  S
C321        C322   1.405       .  A
C321        H326   1.084       .  S
C322        C323   1.405   1_556  A
C323        C324   1.397       .  A
C323        H327   1.082       .  S
C324        H328   1.085       .  S
C329        C330   1.403   1_655  A
C329        C334   1.396       .  A
C329        H339   1.084       .  S
C330        C335   1.478       .  S
C330        C331   1.403       .  A
C331        C332   1.399       .  A
C331        H336   1.083       .  S
C332        C333   1.407   1_455  A
C332        H337   1.082       .  S
C333        C334   1.406       .  A
C334        H338   1.082       .  S
C335        C340   1.404       .  A
C335        C344   1.402   1_455  A
C340        C341   1.400       .  A
C340        H345   1.084       .  S
C341        C342   1.407       .  A
C341        H346   1.083       .  S
C342        C343   1.406   1_455  A
C343        C344   1.394       .  A
C343        H347   1.083       .  S
C344        H348   1.085       .  S
C349        C350   1.408   1_566  A
C349        C354   1.396       .  A
C349        H359   1.081       .  S
C350        C355   1.487       .  S
C350        C351   1.406       .  A
C351        C352   1.397       .  A
C351        H356   1.085       .  S
C352        C353   1.405   1_554  A
C352        H357   1.082       .  S
C353        C354   1.403   1_545  A
C354        H358   1.085       .  S
C355        C360   1.406   1_545  A
C355        C364   1.407   1_554  A
C360        C361   1.396       .  A
C360        H365   1.084       .  S
C361        C362   1.404   1_565  A
C361        H366   1.081       .  S
C362        C363   1.404   1_554  A
C363        C364   1.398       .  A
C363        H367   1.083       .  S
C364        H368   1.082       .  S
C369        C370   1.407       .  A
C369        C374   1.399       .  A
C369        H379   1.082       .  S
C370        C375   1.487       .  S
C370        C371   1.406   1_564  A
C371        C372   1.395       .  A
C371        H376   1.085       .  S
C372        C373   1.403   1_546  A
C372        H377   1.082       .  S
C373        C374   1.405       .  A
C374        H378   1.083       .  S
C375        C380   1.407   1_565  A
C375        C384   1.406   1_554  A
C380        C381   1.396       .  A
C380        H385   1.081       .  S
C381        C382   1.404   1_545  A
C381        H386   1.085       .  S
C382        C383   1.406   1_554  A
C383        C384   1.398       .  A
C383        H387   1.081       .  S
C384        H388   1.085       .  S
C389        C390   1.403   1_655  A
C389        C394   1.395       .  A
C389        H399   1.084       .  S
C390        C395   1.475       .  S
C390        C391   1.403   1_565  A
C391        C392   1.397       .  A
C391        H396   1.083       .  S
C392        C393   1.406   1_545  A
C392        H397   1.082       .  S
C393        C394   1.405   1_455  A
C394        H398   1.082       .  S
C395        C400   1.403   1_565  A
C395        C404   1.402   1_455  A
C400        C401   1.397       .  A
C400        H405   1.084       .  S
C401        C402   1.406   1_545  A
C401        H406   1.084       .  S
C402        C403   1.405   1_455  A
C403        C404   1.394       .  A
C403        H407   1.084       .  S
C404        H408   1.084       .  S
C409        C410   1.406       .  A
C409        C414   1.393       .  A
C409        H419   1.083       .  S
C410        C415   1.483       .  S
C410        C411   1.408       .  A
C411        C412   1.395       .  A
C411        H416   1.082       .  S
C412        C413   1.400       .  A
C412        H417   1.083       .  S
C413        C414   1.401       .  A
C414        H418   1.082       .  S
C415        C420   1.408       .  A
C415        C424   1.407       .  A
C420        C421   1.395       .  A
C420        H425   1.082       .  S
C421        C422   1.399       .  A
C421        H426   1.083       .  S
C422        C423   1.399       .  A
C423        C424   1.394       .  A
C423        H427   1.081       .  S
C424        H428   1.083       .  S
C429        C430   1.409       .  A
C429        C434   1.398       .  A
C429        H439   1.083       .  S
C430        C435   1.493       .  S
C430        C431   1.408       .  A
C431        C432   1.396       .  A
C431        H436   1.082       .  S
C432        C433   1.404       .  A
C432        H437   1.083       .  S
C433        C434   1.403       .  A
C434        H438   1.084       .  S
C435        C440   1.408       .  A
C435        C444   1.408       .  A
C440        C441   1.397       .  A
C440        H445   1.082       .  S
C441        C442   1.404       .  A
C441        H446   1.085       .  S
C442        C443   1.405       .  A
C443        C444   1.398       .  A
C443        H447   1.083       .  S
C444        H448   1.083       .  S
C449        C450   1.411   1_565  A
C449        C454   1.397       .  A
C449        H459   1.080       .  S
C450        C455   1.498   1_545  S
C450        C451   1.412       .  A
C451        C452   1.399       .  A
C451        H456   1.079       .  S
C452        C453   1.399       .  A
C452        H457   1.083       .  S
C453        C454   1.400   1_545  A
C454        H458   1.081       .  S
C455        C460   1.411   1_565  A
C455        C464   1.411       .  A
C460        C461   1.397       .  A
C460        H465   1.079       .  S
C461        C462   1.402   1_545  A
C461        H466   1.084       .  S
C462        C463   1.401       .  A
C463        C464   1.399       .  A
C463        H467   1.082       .  S
C464        H468   1.080       .  S
C469        C470   1.403       .  A
C469        C474   1.397       .  A
C469        H479   1.084       .  S
C470        C475   1.476       .  S
C470        C471   1.403   1_565  A
C471        C472   1.398       .  A
C471        H476   1.083       .  S
C472        C473   1.405   1_545  A
C472        H477   1.084       .  S
C473        C474   1.404       .  A
C474        H478   1.082       .  S
C475        C480   1.403       .  A
C475        C484   1.403       .  A
C480        C481   1.396       .  A
C480        H485   1.083       .  S
C481        C482   1.404       .  A
C481        H486   1.084       .  S
C482        C483   1.406       .  A
C483        C484   1.400       .  A
C483        H487   1.082       .  S
C484        H488   1.084       .  S
C489        C490   1.410   1_455  A
C489        C494   1.396       .  A
C489        H499   1.081       .  S
C490        C495   1.493       .  S
C490        C491   1.410       .  A
C491        C492   1.399       .  A
C491        H496   1.080       .  S
C492        C493   1.402   1_655  A
C492        H497   1.083       .  S
C493        C494   1.399       .  A
C494        H498   1.081       .  S
C495        C500   1.410   1_655  A
C495        C504   1.410       .  A
C500        C501   1.395       .  A
C500        H505   1.080       .  S
C501        C502   1.399   1_455  A
C501        H506   1.084       .  S
C502        C503   1.402       .  A
C503        C504   1.399       .  A
C503        H507   1.082       .  S
C504        H508   1.081       .  S
C509        C510   1.405       .  A
C509        C514   1.398       .  A
C509        H519   1.085       .  S
C510        C515   1.485       .  S
C510        C511   1.406       .  A
C511        C512   1.396       .  A
C511        H516   1.082       .  S
C512        C513   1.404       .  A
C512        H517   1.084       .  S
C513        C514   1.407       .  A
C514        H518   1.081       .  S
C515        C520   1.405       .  A
C515        C524   1.407       .  A
C520        C521   1.395       .  A
C520        H525   1.086       .  S
C521        C522   1.403       .  A
C521        H526   1.081       .  S
C522        C523   1.404       .  A
C523        C524   1.399       .  A
C523        H527   1.085       .  S
C524        H528   1.082       .  S
C529        C530   1.409       .  A
C529        C534   1.402       .  A
C529        H539   1.081       .  S
C530        C535   1.490       .  S
C530        C531   1.405       .  A
C531        C532   1.395       .  A
C531        H536   1.085       .  S
C532        C533   1.405       .  A
C532        H537   1.082       .  S
C533        C534   1.405       .  A
C534        H538   1.084       .  S
C535        C540   1.406       .  A
C535        C544   1.408       .  A
C540        C541   1.399       .  A
C540        H545   1.085       .  S
C541        C542   1.406       .  A
C541        H546   1.081       .  S
C542        C543   1.404       .  A
C543        C544   1.398       .  A
C543        H547   1.084       .  S
C544        H548   1.082       .  S
C549        C550   1.403   1_455  A
C549        C554   1.399       .  A
C549        H559   1.085       .  S
C550        C555   1.475       .  S
C550        C551   1.401       .  A
C551        C552   1.394       .  A
C551        H556   1.084       .  S
C552        C553   1.405       .  A
C552        H557   1.084       .  S
C553        C554   1.407   1_655  A
C554        H558   1.082       .  S
C555        C560   1.402   1_655  A
C555        C564   1.402       .  A
C560        C561   1.395       .  A
C560        H565   1.084       .  S
C561        C562   1.405   1_455  A
C561        H566   1.084       .  S
C562        C563   1.407       .  A
C563        C564   1.398       .  A
C563        H567   1.082       .  S
C564        H568   1.085       .  S
C569        C570   1.404       .  A
C569        C574   1.395       .  A
C569        H579   1.083       .  S
C570        C575   1.482       .  S
C570        C571   1.405   1_445  A
C571        C572   1.398       .  A
C571        H576   1.084       .  S
C572        C573   1.406   1_665  A
C572        H577   1.082       .  S
C573        C574   1.405       .  A
C574        H578   1.084       .  S
C575        C580   1.405   1_455  A
C575        C584   1.405   1_545  A
C580        C581   1.397       .  A
C580        H585   1.084       .  S
C581        C582   1.406   1_655  A
C581        H586   1.083       .  S
C582        C583   1.405   1_545  A
C583        C584   1.396       .  A
C583        H587   1.084       .  S
C584        H588   1.084       .  S
C589        C590   1.408       .  A
C589        C594   1.401       .  A
C589        H599   1.081       .  S
C590        C595   1.490       .  S
C590        C591   1.406       .  A
C591        C592   1.395       .  A
C591        H596   1.084       .  S
C592        C593   1.404       .  A
C592        H597   1.081       .  S
C593        C594   1.405       .  A
C594        H598   1.085       .  S
C595        C600   1.407       .  A
C595        C604   1.407       .  A
C600        C601   1.400       .  A
C600        H605   1.084       .  S
C601        C602   1.407       .  A
C601        H606   1.081       .  S
C602        C603   1.404       .  A
C603        C604   1.396       .  A
C603        H607   1.084       .  S
C604        H608   1.082       .  S
C609        C610   1.406       .  A
C609        C614   1.396       .  A
C609        H619   1.080       .  S
C610        C615   1.485       .  S
C610        C611   1.406       .  A
C611        C612   1.399       .  A
C611        H616   1.084       .  S
C612        C613   1.405       .  A
C612        H617   1.082       .  S
C613        C614   1.404       .  A
C614        H618   1.085       .  S
C615        C620   1.406       .  A
C615        C624   1.406       .  A
C620        C621   1.397       .  A
C620        H625   1.085       .  S
C621        C622   1.404       .  A
C621        H626   1.081       .  S
C622        C623   1.405       .  A
C623        C624   1.398       .  A
C623        H627   1.083       .  S
C624        H628   1.081       .  S
C629        C630   1.407   1_565  A
C629        C634   1.395       .  A
C629        H639   1.083       .  S
C630        C635   1.487       .  S
C630        C631   1.408   1_455  A
C631        C632   1.396       .  A
C631        H636   1.082       .  S
C632        C633   1.403   1_655  A
C632        H637   1.083       .  S
C633        C634   1.403   1_545  A
C634        H638   1.083       .  S
C635        C640   1.406       .  A
C635        C644   1.407   1_445  A
C640        C641   1.395       .  A
C640        H645   1.083       .  S
C641        C642   1.404       .  A
C641        H646   1.083       .  S
C642        C643   1.404   1_445  A
C643        C644   1.396       .  A
C643        H647   1.083       .  S
C644        H648   1.083       .  S
