geometry optimzed in LAMMPS
_audit_creation_date              2020-11-30 
_audit_creation_method            'lammps2cif' 
_symmetry_space_group_name_H-M    'P1' 
_symmetry_Int_Tables_number       1 
_symmetry_cell_setting            triclinic 
loop_ 
_symmetry_equiv_pos_as_xyz 
  x,y,z 
_cell_length_a                    53.2258779 
_cell_length_b                    53.3048111103553 
_cell_length_c                    103.95534593746729 
_cell_angle_alpha                 90.2989287179273 
_cell_angle_beta                  89.9964005660486 
_cell_angle_gamma                 119.84027432291458 
loop_ 
_atom_site_label 
_atom_site_type_symbol 
_atom_site_fract_x 
_atom_site_fract_y 
_atom_site_fract_z 
_atom_site_charge 
C1          C  0.25990420  0.27377348  0.40896372     0.02600
C2          C  0.25858249  0.27396878  0.42255369     0.02600
C3          C  0.23507065  0.25120754  0.42880087    -0.17900
C4          C  0.21267049  0.22822137  0.42198441     0.02600
C5          C  0.21377451  0.22797811  0.40837059     0.02600
C6          C  0.23741964  0.25083183  0.40203807    -0.17900
H7          H  0.23839615  0.25071382  0.39162131     0.04600
H8          H  0.23423682  0.25136291  0.43922352     0.04600
C9          C  0.00203707  0.28383242  0.59903815     0.02600
C10         C  0.99583951  0.28033765  0.61237848     0.02600
C11         C  0.99330474  0.25577681  0.61860473    -0.17900
C12         C  0.99708063  0.23493466  0.61183076     0.02600
C13         C  0.00208673  0.23801953  0.59840886     0.02600
C14         C  0.00485741  0.26256895  0.59226735    -0.17900
H15         H  0.00847070  0.26479302  0.58196397     0.04600
H16         H  0.98947822  0.25345090  0.62888574     0.04600
O17         O  0.03706876  0.02896056  0.50100329    -0.57500
C18         C  0.48927004  0.46027709  0.52628064     0.75100
O19         O  0.46293454  0.02760430  0.51915656    -0.58600
C20         C  0.03022392  0.03875001  0.49133792     0.75100
C21         C  0.44300062  0.46514563  0.49138734     0.77500
Cd22       Cd  0.48688511  0.00210609  0.50950330     1.37500
O23         O  0.01058656  0.47608587  0.51912627    -0.57500
O24         O  0.46875618  0.46993435  0.49070573    -0.56300
C25         C  0.48430133  0.04424331  0.52618946     0.77500
O26         O  0.43721773  0.47697298  0.50066334    -0.58700
O27         O  0.46753800  0.46377257  0.52540745    -0.57100
O28         O  0.00388901  0.03188935  0.49034755    -0.57100
O29         O  0.00645024  0.04142523  0.52532408    -0.56300
C30         C  0.48335853  0.27720610  0.74163751     0.02600
C31         C  0.48677428  0.27829981  0.75518604     0.02600
C32         C  0.48885625  0.25604591  0.76133931    -0.17900
C33         C  0.48642449  0.23222221  0.75443815     0.02600
C34         C  0.48171044  0.23038555  0.74096522     0.02600
C35         C  0.48023274  0.25300019  0.73472808    -0.17900
H36         H  0.47756518  0.25220496  0.72437011     0.04600
H37         H  0.49128092  0.25666312  0.77171087     0.04600
O38         O  0.02343848  0.06109298  0.83457299    -0.57500
C39         C  0.03617556  0.51196711  0.86358705     0.75100
O40         O  0.44724444  0.48810316  0.85540871    -0.58600
C41         C  0.50224272  0.05751646  0.82765662     0.75100
C42         C  0.49393914  0.46993675  0.82693527     0.77500
Cd43       Cd  0.49581291  0.51210936  0.84507011     1.37500
O44         O  0.04368269  0.03494732  0.85669810    -0.57500
O45         O  0.01646276  0.49397646  0.82913053    -0.56300
C46         C  0.45364761  0.01032214  0.86242337     0.77500
O47         O  0.47128951  0.46519087  0.83299282    -0.58700
O48         O  0.51103683  0.49062758  0.86183959    -0.57100
O49         O  0.47917034  0.03342743  0.82868879    -0.57100
O50         O  0.47868939  0.03216512  0.86140209    -0.56300
C51         C  0.22093659  0.00647012  0.94875663     0.02600
C52         C  0.22213387  0.00862455  0.93517002     0.02600
C53         C  0.24430607  0.00722534  0.92854820    -0.17900
C54         C  0.26593407  0.00459110  0.93505782     0.02600
C55         C  0.26568656  0.00381043  0.94867950     0.02600
C56         C  0.24269343  0.00391455  0.95534683    -0.17900
H57         H  0.24247329  0.00340095  0.96577091     0.04600
H58         H  0.24449370  0.00786416  0.91812028     0.04600
C59         C  0.26244622  0.26863621  0.28108420     0.02600
C60         C  0.26230928  0.26938739  0.26747901     0.02600
C61         C  0.24028831  0.24621101  0.26064122    -0.17900
C62         C  0.21817063  0.22224053  0.26693292     0.02600
C63         C  0.21762398  0.22151509  0.28055643     0.02600
C64         C  0.23989673  0.24476708  0.28744070    -0.17900
H65         H  0.23977209  0.24420536  0.29786462     0.04600
H66         H  0.24045438  0.24677308  0.25020673     0.04600
C67         C  0.45883394  0.48044821  0.35127914     0.02600
C68         C  0.46143241  0.48007012  0.33769904     0.02600
C69         C  0.48544038  0.00287113  0.33154594    -0.17900
C70         C  0.00710962  0.02593588  0.33870741     0.02600
C71         C  0.00509236  0.02556335  0.35228568     0.02600
C72         C  0.48087133  0.00299586  0.35830977    -0.17900
H73         H  0.47915989  0.00315386  0.36870002     0.04600
H74         H  0.48725211  0.00292897  0.32115914     0.04600
O75         O  0.46115702  0.44297043  0.18603622    -0.57500
C76         C  0.02727836  0.98676739  0.16221760     0.75100
O77         O  0.45370788  0.01117356  0.17448409    -0.58600
C78         C  0.44934732  0.44794076  0.19553667     0.75100
C79         C  0.02974632  0.04089313  0.19509350     0.77500
Cd80       Cd  0.48841082  0.99401796  0.17905872     1.37500
O81         O  0.01526421  0.47071372  0.17165693    -0.57500
O82         O  0.02477351  0.01521886  0.19611126    -0.56300
C83         C  0.44599219  0.99892161  0.16359542     0.77500
O84         O  0.01581437  0.04538042  0.18638917    -0.58700
O85         O  0.01999253  0.00571330  0.16025887    -0.57100
O86         O  0.45530238  0.47383997  0.19709886    -0.57100
O87         O  0.45744542  0.48510737  0.15957101    -0.56300
C88         C  0.22157657  0.50944743  0.07607434     0.02600
C89         C  0.21905142  0.50584755  0.08964476     0.02600
C90         C  0.24146178  0.50527221  0.09656025    -0.17900
C91         C  0.26546739  0.50657928  0.09033702     0.02600
C92         C  0.26679513  0.50785376  0.07675353     0.02600
C93         C  0.24542108  0.51018339  0.06985684    -0.17900
H94         H  0.24726572  0.51223769  0.05948403     0.04600
H95         H  0.23997256  0.50326436  0.10694002     0.04600
C96         C  0.01526843  0.00217014  0.00693234     0.02600
C97         C  0.01828318  0.00887937  0.02028776     0.02600
C98         C  0.49637582  0.01157480  0.02659670    -0.17900
C99         C  0.47189034  0.00809161  0.01998112     0.02600
C100        C  0.46886471  0.00153743  0.00667650     0.02600
C101        C  0.49079407  0.99904629  0.00027626    -0.17900
H102        H  0.48832033  0.99367754  0.99011159     0.04600
H103        H  0.49865796  0.01707587  0.03674785     0.04600
C104        C  0.48315172  0.47917274  0.66987667     0.02600
C105        C  0.47944101  0.47800427  0.68340115     0.02600
C106        C  0.47916136  0.00106583  0.68992281    -0.17900
C107        C  0.48112555  0.02467169  0.68310103     0.02600
C108        C  0.48303594  0.02488685  0.66951522     0.02600
C109        C  0.48497161  0.00262466  0.66311240    -0.17900
H110        H  0.98720895  0.00326986  0.65273722     0.04600
H111        H  0.47704077  0.00050661  0.70030101     0.04600
C112        C  0.28932279  0.50508069  0.06953324    -0.02900
C113        C  0.29283053  0.48095405  0.07141926    -0.05500
C114        C  0.31483201  0.47881016  0.06509327    -0.20600
C115        C  0.33528099  0.00138316  0.05742968     0.25200
C116        C  0.33108115  0.02514199  0.05525938    -0.18100
C117        C  0.30759340  0.52660914  0.06091580    -0.08100
C118        C  0.35881666  0.99837939  0.05117713    -0.18400
C119        C  0.38249814  0.02052439  0.04584420    -0.23200
C120        C  0.40568386  0.01710551  0.03958333     0.27200
C121        C  0.42173483  0.03611627  0.02966358    -0.19900
C122        C  0.44359750  0.03353156  0.02343711    -0.09600
C123        C  0.44998715  0.01202973  0.02711405    -0.10100
C124        C  0.43467853  0.99358914  0.03730881    -0.03100
C125        C  0.41262357  0.99601091  0.04348291    -0.18200
H126        H  0.27865836  0.46389234  0.07789860     0.10900
H127        H  0.31726412  0.46011171  0.06684456     0.11000
H128        H  0.34455750  0.04217561  0.04866996     0.10700
H129        H  0.30504693  0.54526789  0.05925853     0.11800
H130        H  0.35655041  0.97698156  0.05111441     0.11900
H131        H  0.38500271  0.04197354  0.04569873     0.13800
H132        H  0.41701450  0.05272449  0.02658560     0.10300
H133        H  0.45536350  0.04810765  0.01565113     0.12400
H134        H  0.43765792  0.47568375  0.03995475     0.09000
H135        H  0.40135528  0.98160486  0.05137243     0.11700
C136        C  0.04388439  0.01328329  0.02795899    -0.02900
C137        C  0.03973979  0.99906561  0.03977300    -0.05500
C138        C  0.06341613  0.00268623  0.04703236    -0.20600
C139        C  0.09172508  0.02003105  0.04252014     0.25200
C140        C  0.09499128  0.53463469  0.03084586    -0.18100
C141        C  0.07117719  0.53134630  0.02372728    -0.08100
C142        C  0.11615950  0.02246117  0.05031513    -0.18400
C143        C  0.13864440  0.02128782  0.04506083    -0.23200
C144        C  0.16071172  0.01935076  0.05305907     0.27200
C145        C  0.17042832  0.50142375  0.04880642    -0.19900
C146        C  0.19008380  0.49785974  0.05640901    -0.09600
C147        C  0.20020680  0.51296874  0.06812262    -0.10100
C148        C  0.19150088  0.03234209  0.07207632    -0.03100
C149        C  0.17116598  0.03511402  0.06458917    -0.18200
H150        H  0.01808681  0.98481621  0.04332107     0.10900
H151        H  0.05958905  0.99131169  0.05606542     0.09200
H152        H  0.11665464  0.54886295  0.02730832     0.10700
H153        H  0.07494249  0.54324208  0.01485619     0.11800
H154        H  0.11393874  0.02185590  0.06071820     0.11900
H155        H  0.13840300  0.51916613  0.03459355     0.13800
H156        H  0.16281909  0.48937882  0.03987228     0.10300
H157        H  0.19714919  0.48301915  0.05318863     0.12400
H158        H  0.19964601  0.04518686  0.08077298     0.09000
H159        H  0.16391827  0.04986009  0.06772562     0.11700
C160        C  0.28877062  0.50649742  0.09822411    -0.02900
C161        C  0.31806627  0.52665766  0.09593714    -0.05500
C162        C  0.33991400  0.52575664  0.10301256    -0.20600
C163        C  0.33290035  0.50544888  0.11284472     0.25200
C164        C  0.30361957  0.48550398  0.11527043    -0.18100
C165        C  0.28178504  0.48600561  0.10800618    -0.08100
C166        C  0.35655120  0.50523015  0.12025671    -0.18400
C167        C  0.35403869  0.49843994  0.13281738    -0.23200
C168        C  0.37802374  0.49923873  0.14038569     0.27200
C169        C  0.38049239  0.50626420  0.15352803    -0.19900
C170        C  0.40375359  0.00709826  0.16136845    -0.09600
C171        C  0.42342131  0.99998993  0.15575117    -0.10100
C172        C  0.42060714  0.99263759  0.14263173    -0.03100
C173        C  0.39787907  0.49229375  0.13481844    -0.18200
H174        H  0.32506597  0.04350659  0.08911158     0.10900
H175        H  0.36233612  0.54128035  0.10096130     0.11000
H176        H  0.29757691  0.46912067  0.12258502     0.10700
H177        H  0.25942125  0.47004830  0.10988245     0.11800
H178        H  0.37719467  0.51278116  0.11546079     0.11900
H179        H  0.33442785  0.49389028  0.13792844     0.13800
H180        H  0.36526211  0.51142738  0.15804007     0.10300
H181        H  0.40525968  0.01254079  0.17149804     0.12400
H182        H  0.43536669  0.98688079  0.13808623     0.09000
H183        H  0.39610576  0.48604814  0.12479077     0.11700
C184        C  0.04830619  0.98427151  0.15380487    -0.02900
C185        C  0.06281486  0.96985561  0.15803194    -0.05500
C186        C  0.08493741  0.97024007  0.15060676    -0.20600
C187        C  0.09233717  0.98430249  0.13868549     0.25200
C188        C  0.07707606  0.99779366  0.13424299    -0.18100
C189        C  0.05539134  0.99791360  0.14177121    -0.08100
C190        C  0.11754914  0.98677936  0.13153975    -0.18400
C191        C  0.11864603  0.98681138  0.11861513    -0.23200
C192        C  0.14479064  0.99160310  0.11153273     0.27200
C193        C  0.14171110  0.97646486  0.10003302    -0.19900
C194        C  0.16498690  0.48057667  0.09272484    -0.09600
C195        C  0.19294166  0.50119078  0.09689572    -0.10100
C196        C  0.19703511  0.01735105  0.10864111    -0.03100
C197        C  0.17267556  0.01212722  0.11578417    -0.18200
H198        H  0.05782917  0.95923971  0.16729011     0.10900
H199        H  0.09654259  0.95985015  0.15423800     0.11000
H200        H  0.08270739  0.00931601  0.12520775     0.10700
H201        H  0.04455012  0.00918869  0.13828480     0.11800
H202        H  0.13553569  0.98820537  0.13707844     0.11900
H203        H  0.09959158  0.98241509  0.11305041     0.13800
H204        H  0.12039303  0.96063264  0.09657008     0.10300
H205        H  0.16202427  0.46799158  0.08407214     0.12400
H206        H  0.21826503  0.03356207  0.11203095     0.09000
H207        H  0.17561331  0.02459827  0.12447343     0.11700
C208        C  0.42957694  0.42505295  0.20440463    -0.02900
C209        C  0.42446747  0.39660408  0.20331900    -0.05500
C210        C  0.40548621  0.37524091  0.21181181    -0.20600
C211        C  0.39102048  0.38188182  0.22136586     0.25200
C212        C  0.39663143  0.41048521  0.22257434    -0.18100
C213        C  0.41564092  0.43177752  0.21417707    -0.08100
C214        C  0.37055745  0.35886983  0.23011118    -0.18400
C215        C  0.34734413  0.35911464  0.23510824    -0.23200
C216        C  0.32628589  0.33633513  0.24373723     0.27200
C217        C  0.29753042  0.33051890  0.24370929    -0.19900
C218        C  0.27693557  0.30909065  0.25161964    -0.09600
C219        C  0.28487393  0.29351950  0.25991394    -0.10100
C220        C  0.31376982  0.29976788  0.26024096    -0.03100
C221        C  0.33437268  0.32102803  0.25219839    -0.18200
H222        H  0.43511159  0.39089113  0.19593172     0.10900
H223        H  0.40173892  0.35340283  0.21079947     0.11000
H224        H  0.38665750  0.41660477  0.23010688     0.10700
H225        H  0.41938255  0.45357893  0.21534366     0.11800
H226        H  0.37381978  0.34063428  0.23189801     0.11900
H227        H  0.34250429  0.37578644  0.23217338     0.13800
H228        H  0.29087255  0.34222664  0.23736874     0.10300
H229        H  0.25469837  0.30448704  0.25123251     0.12400
H230        H  0.32021707  0.28785153  0.26655222     0.09000
H231        H  0.35656431  0.32559154  0.25269521     0.11700
C232        C  0.19620756  0.19858178  0.25882422    -0.02900
C233        C  0.20504915  0.18498478  0.24974647    -0.05500
C234        C  0.18478038  0.16328459  0.24172089    -0.20600
C235        C  0.15540039  0.15516775  0.24245096     0.25200
C236        C  0.14648467  0.16866770  0.25160739    -0.18100
C237        C  0.16678460  0.19026476  0.25972070    -0.08100
C238        C  0.13456763  0.13193588  0.23380867    -0.18400
C239        C  0.11023783  0.13079270  0.22942094    -0.23200
C240        C  0.08989014  0.10762395  0.22059581     0.27200
C241        C  0.07415581  0.11375699  0.21154320    -0.19900
C242        C  0.05480619  0.09222857  0.20310835    -0.09600
C243        C  0.05055082  0.06405427  0.20373945    -0.10100
C244        C  0.06598159  0.05785010  0.21295303    -0.03100
C245        C  0.08543200  0.07937192  0.22129456    -0.18200
H246        H  0.22768945  0.19115187  0.24891735     0.10900
H247        H  0.19210352  0.15304283  0.23480874     0.11000
H248        H  0.12386237  0.16233855  0.25262496     0.10700
H249        H  0.15960547  0.20062671  0.26663114     0.11800
H250        H  0.14039137  0.11624286  0.23034657     0.11900
H251        H  0.10589134  0.14815360  0.23175935     0.13800
H252        H  0.07707421  0.13532911  0.21091576     0.10300
H253        H  0.04306853  0.09757386  0.19616052     0.12400
H254        H  0.06293226  0.03626093  0.21376914     0.09000
H255        H  0.09654826  0.07369888  0.22842545     0.11700
C256        C  0.19447385  0.19674392  0.28779339    -0.02900
C257        C  0.18776861  0.16824449  0.28506851    -0.05500
C258        C  0.16524738  0.14498235  0.29152814    -0.20600
C259        C  0.14899377  0.14959307  0.30092937     0.25200
C260        C  0.15638926  0.17825549  0.30398834    -0.18100
C261        C  0.17887566  0.20154230  0.29746461    -0.08100
C262        C  0.12512618  0.12392154  0.30744685    -0.18400
C263        C  0.10270229  0.12403591  0.31345826    -0.23200
C264        C  0.07829284  0.09817822  0.31966850     0.27200
C265        C  0.06014486  0.10246705  0.32811600    -0.19900
C266        C  0.03681272  0.07903179  0.33410378    -0.09600
C267        C  0.03111992  0.05067933  0.33184132    -0.10100
C268        C  0.04872163  0.04615022  0.32319069    -0.03100
C269        C  0.07205973  0.06960143  0.31714885    -0.18200
H270        H  0.19992296  0.16395525  0.27789426     0.10900
H271        H  0.16034997  0.12322401  0.28908959     0.11000
H272        H  0.14519006  0.18292454  0.31147424     0.10700
H273        H  0.18387716  0.22335089  0.29985782     0.11800
H274        H  0.12600314  0.10407010  0.30691264     0.11900
H275        H  0.10190054  0.14395658  0.31389707     0.13800
H276        H  0.06410722  0.12409436  0.33014638     0.10300
H277        H  0.02323278  0.08304066  0.34057665     0.12400
H278        H  0.04460217  0.02444509  0.32123471     0.09000
H279        H  0.08474281  0.06500457  0.31043165     0.11700
C280        C  0.43943932  0.45600347  0.32961633    -0.02900
C281        C  0.42685327  0.46192069  0.31904784    -0.05500
C282        C  0.40499191  0.43935349  0.31187312    -0.20600
C283        C  0.39507295  0.41037533  0.31513281     0.25200
C284        C  0.40850004  0.40446027  0.32543895    -0.18100
C285        C  0.43054040  0.42706226  0.33254131    -0.08100
C286        C  0.37113886  0.38723985  0.30737624    -0.18400
C287        C  0.35463042  0.35967703  0.31130701    -0.23200
C288        C  0.33076306  0.33690222  0.30342945     0.27200
C289        C  0.32274821  0.30785963  0.30548691    -0.19900
C290        C  0.30055904  0.28577334  0.29824539    -0.09600
C291        C  0.28570334  0.29225233  0.28886453    -0.10100
C292        C  0.29304008  0.32120663  0.28706478    -0.03100
C293        C  0.31538480  0.34334037  0.29423792    -0.18200
H294        H  0.43346953  0.48404250  0.31652914     0.10900
H295        H  0.39538157  0.44458106  0.30388225     0.11000
H296        H  0.40245151  0.38255635  0.32800591     0.10700
H297        H  0.44051516  0.42194623  0.34041594     0.11800
H298        H  0.36682880  0.39348631  0.29807709     0.11900
H299        H  0.35886459  0.35306720  0.32052009     0.13800
H300        H  0.33398354  0.30226914  0.31260562     0.10300
H301        H  0.29520058  0.26359854  0.29985806     0.12400
H302        H  0.28132382  0.32668253  0.28016149     0.09000
H303        H  0.32008375  0.36530970  0.29271990     0.11700
C304        C  0.29040703  0.00542253  0.95605662    -0.02900
C305        C  0.31856616  0.02836951  0.95394813    -0.05500
C306        C  0.34214842  0.02969646  0.96047107    -0.20600
C307        C  0.33827838  0.00807215  0.96922189     0.25200
C308        C  0.30884019  0.48355019  0.97139296    -0.18100
C309        C  0.28617598  0.98422770  0.96510955    -0.08100
C310        C  0.36456349  0.01046045  0.97557054    -0.18400
C311        C  0.36469678  0.48704557  0.98125677    -0.23200
C312        C  0.39167457  0.49018869  0.98714461     0.27200
C313        C  0.38929372  0.47149460  0.99712638    -0.19900
C314        C  0.41405231  0.47414804  0.00310444    -0.09600
C315        C  0.44264267  0.99669782  0.99946187    -0.10100
C316        C  0.44514621  0.01425273  0.98898128    -0.03100
C317        C  0.42035407  0.01180338  0.98307130    -0.18200
H318        H  0.32230988  0.04524682  0.94717229     0.10900
H319        H  0.36363106  0.04756726  0.95852351     0.11000
H320        H  0.30477107  0.46677700  0.97824338     0.10700
H321        H  0.26353250  0.46436897  0.96674164     0.11800
H322        H  0.38429867  0.03121287  0.97483729     0.11900
H323        H  0.34531682  0.46603431  0.98197701     0.13800
H324        H  0.36817094  0.45515305  0.00049418     0.10300
H325        H  0.41159180  0.45989230  0.01098338     0.12400
H326        H  0.46632841  0.03040318  0.98559454     0.09000
H327        H  0.42318698  0.02560723  0.97497401     0.11700
C328        C  0.03683172  0.99749263  0.99980345    -0.02900
C329        C  0.04383504  0.47645120  0.00440637    -0.05500
C330        C  0.06584242  0.47374895  0.99834250    -0.20600
C331        C  0.08084873  0.99171271  0.98728742     0.25200
C332        C  0.07217623  0.01099854  0.98260295    -0.18100
C333        C  0.05037294  0.01382215  0.98880930    -0.08100
C334        C  0.10466607  0.98884798  0.98124430    -0.18400
C335        C  0.12722830  0.01096097  0.97523541    -0.23200
C336        C  0.15165653  0.00929785  0.96904338     0.27200
C337        C  0.17039129  0.03213392  0.96102111    -0.19900
C338        C  0.19331063  0.03160423  0.95472527    -0.09600
C339        C  0.19795394  0.00807555  0.95622314    -0.10100
C340        C  0.17999465  0.98566740  0.96457873    -0.03100
C341        C  0.15704499  0.98620367  0.97093889    -0.18200
H342        H  0.03325918  0.46331164  0.01274667     0.10900
H343        H  0.07190117  0.45860851  0.00213982     0.11000
H344        H  0.08207214  0.02386234  0.97413030     0.10700
H345        H  0.04451567  0.02925885  0.98520480     0.11800
H346        H  0.10364433  0.46766380  0.98283668     0.11900
H347        H  0.12793768  0.03163924  0.97471927     0.13800
H348        H  0.16708870  0.05037609  0.95948487     0.10300
H349        H  0.20724085  0.04943894  0.94853255     0.12400
H350        H  0.18252669  0.46638211  0.96623285     0.09000
H351        H  0.14335197  0.46775287  0.97772322     0.11700
C352        C  0.43224770  0.01037814  0.87151185    -0.02900
C353        C  0.43870435  0.03588874  0.87818142    -0.05500
C354        C  0.41863926  0.03655606  0.88660460    -0.20600
C355        C  0.39173138  0.01172865  0.88869836     0.25200
C356        C  0.38418470  0.48477145  0.88226996    -0.18100
C357        C  0.40441695  0.48433283  0.87376849    -0.08100
C358        C  0.37080725  0.01429953  0.89730059    -0.18400
C359        C  0.34628746  0.49030075  0.90283422    -0.23200
C360        C  0.32573184  0.49408843  0.91119137     0.27200
C361        C  0.31070961  0.47382969  0.92087911    -0.19900
C362        C  0.29119922  0.47690878  0.92884873    -0.09600
C363        C  0.28798402  0.00208631  0.92724742    -0.10100
C364        C  0.30250678  0.02186856  0.91734311    -0.03100
C365        C  0.32194681  0.01872628  0.90942050    -0.18200
H366        H  0.45921966  0.05552409  0.87679406     0.10900
H367        H  0.42416772  0.05666972  0.89148907     0.11000
H368        H  0.36366259  0.46513153  0.88348939     0.10700
H369        H  0.39916346  0.46433108  0.86886208     0.11800
H370        H  0.37524314  0.03607911  0.89947165     0.11900
H371        H  0.34307933  0.46864871  0.90174284     0.13800
H372        H  0.31416545  0.45565534  0.92230805     0.10300
H373        H  0.27962761  0.46084819  0.93616536     0.12400
H374        H  0.29859586  0.03968055  0.91567122     0.09000
H375        H  0.33208257  0.03396382  0.90167182     0.11700
C376        C  0.05618663  0.51070227  0.87313581    -0.02900
C377        C  0.04952111  0.98534515  0.87922076    -0.05500
C378        C  0.06841592  0.98361281  0.88801759    -0.20600
C379        C  0.09593795  0.00752447  0.89042887     0.25200
C380        C  0.10403748  0.03347941  0.88377566    -0.18100
C381        C  0.08421023  0.53420070  0.87503870    -0.08100
C382        C  0.11527228  0.00371212  0.89967106    -0.18400
C383        C  0.14184133  0.02476567  0.90332437    -0.23200
C384        C  0.16144024  0.01996549  0.91195117     0.27200
C385        C  0.19109967  0.04053578  0.91190880    -0.19900
C386        C  0.21061110  0.03681054  0.91951449    -0.09600
C387        C  0.20087365  0.01258875  0.92748332    -0.10100
C388        C  0.17121109  0.99218700  0.92778932    -0.03100
C389        C  0.15160872  0.99586282  0.92014881    -0.18200
H390        H  0.02853763  0.96636498  0.87760381     0.10900
H391        H  0.06147669  0.96333225  0.89292654     0.11000
H392        H  0.12495056  0.05252432  0.88515787     0.10700
H393        H  0.09165391  0.55388230  0.86957373     0.11800
H394        H  0.10725116  0.98202912  0.90330662     0.11900
H395        H  0.15050357  0.04634212  0.89949140     0.13800
H396        H  0.19930808  0.05940535  0.90581205     0.10300
H397        H  0.23341296  0.05288443  0.91919393     0.12400
H398        H  0.16327895  0.97334294  0.93388277     0.09000
H399        H  0.12890359  0.97989425  0.92083392     0.11700
C400        C  0.50391977  0.08008662  0.81886587    -0.02900
C401        C  0.52974976  0.10651118  0.81740722    -0.05500
C402        C  0.53081515  0.12777487  0.80919775    -0.20600
C403        C  0.50619499  0.12302356  0.80221797     0.25200
C404        C  0.48028224  0.09661217  0.80378047    -0.18100
C405        C  0.47923992  0.07540104  0.81195904    -0.08100
C406        C  0.50798611  0.14661323  0.79396978    -0.18400
C407        C  0.48955972  0.14216548  0.78416576    -0.23200
C408        C  0.48994067  0.16569489  0.77633942     0.27200
C409        C  0.46533472  0.15931407  0.76893719    -0.19900
C410        C  0.46418430  0.18080661  0.76174324    -0.09600
C411        C  0.48775658  0.20909957  0.76172985    -0.10100
C412        C  0.51257343  0.21551577  0.76890197    -0.03100
C413        C  0.51381102  0.19402848  0.77606225    -0.18200
H414        H  0.04908611  0.11079996  0.82264563     0.10900
H415        H  0.05096516  0.14802948  0.80829072     0.11000
H416        H  0.46050884  0.09238133  0.79899899     0.10700
H417        H  0.45890719  0.05538986  0.81298994     0.11800
H418        H  0.52511679  0.16832053  0.79624292     0.11900
H419        H  0.47275070  0.12028603  0.78187510     0.13800
H420        H  0.44671272  0.13769650  0.76888319     0.10300
H421        H  0.44478172  0.17546343  0.75630245     0.12400
H422        H  0.03109446  0.23719621  0.76888151     0.09000
H423        H  0.53358889  0.19984460  0.78122700     0.11700
C424        C  0.48600371  0.30118622  0.76322101    -0.02900
C425        C  0.46328162  0.30716955  0.76174863    -0.05500
C426        C  0.46169252  0.32777607  0.76953482    -0.20600
C427        C  0.48267712  0.34289876  0.77903849     0.25200
C428        C  0.50533005  0.33669156  0.78065572    -0.18100
C429        C  0.00693365  0.31603693  0.77281417    -0.08100
C430        C  0.47928987  0.36395363  0.78732151    -0.18400
C431        C  0.50123271  0.38576681  0.79384073    -0.23200
C432        C  0.49795407  0.40723133  0.80187693     0.27200
C433        C  0.02281855  0.43369985  0.80472879    -0.19900
C434        C  0.02122412  0.45417333  0.81260022    -0.09600
C435        C  0.49471903  0.44859803  0.81797542    -0.10100
C436        C  0.46967455  0.42222554  0.81508846    -0.03100
C437        C  0.47123757  0.40170061  0.80712848    -0.18200
H438        H  0.44638679  0.29548551  0.75469561     0.10900
H439        H  0.44383831  0.33181114  0.76816326     0.11000
H440        H  0.02146778  0.34717495  0.78811413     0.10700
H441        H  0.02446997  0.31155773  0.77426510     0.11800
H442        H  0.45807248  0.36214742  0.78746077     0.11900
H443        H  0.02295858  0.38906976  0.79280294     0.13800
H444        H  0.04366990  0.43854529  0.80088763     0.10300
H445        H  0.04095861  0.47424357  0.81465643     0.12400
H446        H  0.44897340  0.41726662  0.81914306     0.09000
H447        H  0.45164609  0.38132741  0.80544751     0.11700
C448        C  0.47909683  0.20549965  0.73326210    -0.02900
C449        C  0.45427556  0.18844272  0.72578855    -0.05500
C450        C  0.45090027  0.16377643  0.71931819    -0.20600
C451        C  0.47246337  0.15590938  0.71999988     0.25200
C452        C  0.99746680  0.17326854  0.72739090    -0.18100
C453        C  0.50080068  0.19785328  0.73384616    -0.08100
C454        C  0.46786878  0.12904796  0.71331388    -0.18400
C455        C  0.48992621  0.12531244  0.70932410    -0.23200
C456        C  0.48635277  0.09889034  0.70264034     0.27200
C457        C  0.00927926  0.10141352  0.69502544    -0.19900
C458        C  0.00756039  0.07725970  0.68885110    -0.09600
C459        C  0.48295570  0.04984316  0.69023289    -0.10100
C460        C  0.46011521  0.04699009  0.69801988    -0.03100
C461        C  0.46169756  0.07132202  0.70413362    -0.18200
H462        H  0.43717147  0.19380746  0.72523634     0.10900
H463        H  0.43134753  0.15075170  0.71377947     0.11000
H464        H  0.01422901  0.16759581  0.72849929     0.10700
H465        H  0.02019177  0.21069656  0.73950702     0.11800
H466        H  0.44574313  0.11253156  0.71115071     0.11900
H467        H  0.01195239  0.14307160  0.71043684     0.13800
H468        H  0.02861664  0.12225670  0.69378779     0.10300
H469        H  0.02550019  0.07995180  0.68294796     0.12400
H470        H  0.44093724  0.02601903  0.69921579     0.09000
H471        H  0.44389080  0.06837236  0.71017416     0.11700
C472        C  0.47581475  0.45277593  0.69088362    -0.02900
C473        C  0.45334005  0.42485175  0.68783338    -0.05500
C474        C  0.45055740  0.40085479  0.69445624    -0.20600
C475        C  0.47033881  0.40421218  0.70416323     0.25200
C476        C  0.49241766  0.43232803  0.70746047    -0.18100
C477        C  0.99505159  0.45638322  0.70088300    -0.08100
C478        C  0.46690274  0.37794531  0.71072630    -0.18400
C479        C  0.48931419  0.37630119  0.71584587    -0.23200
C480        C  0.48682312  0.35006868  0.72214546     0.27200
C481        C  0.51040229  0.35320507  0.72947304    -0.19900
C482        C  0.50935123  0.32947304  0.73563437    -0.09600
C483        C  0.48475182  0.30194061  0.73452297    -0.10100
C484        C  0.46138461  0.29841971  0.72695905    -0.03100
C485        C  0.46230601  0.32224323  0.72085364    -0.18200
H486        H  0.43803643  0.42164087  0.68025673     0.10900
H487        H  0.43317538  0.37951528  0.69183245     0.11000
H488        H  0.00748639  0.43588042  0.71517593     0.10700
H489        H  0.01240110  0.47778325  0.70344082     0.11800
H490        H  0.44532014  0.35925919  0.71084460     0.11900
H491        H  0.51082916  0.39514205  0.71540764     0.13800
H492        H  0.52966755  0.37420892  0.73054926     0.10300
H493        H  0.52771437  0.33259680  0.74135199     0.12400
H494        H  0.44223181  0.27731075  0.72597527     0.09000
H495        H  0.44389819  0.31850080  0.71506417     0.11700
C496        C  0.50466020  0.30873540  0.59165060    -0.02900
C497        C  0.02936817  0.32532778  0.58414705    -0.05500
C498        C  0.03119889  0.34750285  0.57640400    -0.20600
C499        C  0.00824594  0.35331549  0.57587930     0.25200
C500        C  0.48384886  0.33725111  0.58373872    -0.18100
C501        C  0.48200698  0.31500650  0.59145894    -0.08100
C502        C  0.01058273  0.37611617  0.56697765    -0.18400
C503        C  0.48735560  0.37660419  0.56214493    -0.23200
C504        C  0.48909926  0.39859227  0.55290564     0.27200
C505        C  0.46509676  0.40262987  0.55180746    -0.19900
C506        C  0.46526624  0.42261441  0.54314891    -0.09600
C507        C  0.48941969  0.43895009  0.53528240    -0.10100
C508        C  0.01339262  0.43473799  0.53620869    -0.03100
C509        C  0.01324242  0.41468530  0.54491569    -0.18200
H510        H  0.04712626  0.32086899  0.58418761     0.10900
H511        H  0.05033495  0.35971395  0.57056565     0.11000
H512        H  0.46613210  0.34169575  0.58399463     0.10700
H513        H  0.46267601  0.30235995  0.59711706     0.11800
H514        H  0.03217188  0.39232712  0.56402352     0.11900
H515        H  0.46580549  0.36021831  0.56505983     0.13800
H516        H  0.44613832  0.39036724  0.55774313     0.10300
H517        H  0.44641159  0.42529133  0.54264047     0.12400
H518        H  0.03219610  0.44685138  0.53017759     0.09000
H519        H  0.03181266  0.41156976  0.54514576     0.11700
C520        C  0.48368532  0.06576365  0.53502186    -0.02900
C521        C  0.45894399  0.06866107  0.53607805    -0.05500
C522        C  0.45865183  0.08896800  0.54458212    -0.20600
C523        C  0.48311255  0.10689233  0.55210805     0.25200
C524        C  0.00771505  0.10365608  0.55115243    -0.18100
C525        C  0.00800266  0.08341935  0.54266867    -0.08100
C526        C  0.48190791  0.12803096  0.56110862    -0.18400
C527        C  0.00566980  0.15190307  0.56547246    -0.23200
C528        C  0.00442972  0.17331582  0.57424810     0.27200
C529        C  0.02719826  0.20206802  0.57404021    -0.19900
C530        C  0.02657544  0.22300217  0.58196831    -0.09600
C531        C  0.00333853  0.21547660  0.59041084    -0.10100
C532        C  0.48084430  0.18659168  0.59084574    -0.03100
C533        C  0.48143429  0.16564548  0.58290579    -0.18200
H534        H  0.43981525  0.05520884  0.53036240     0.10900
H535        H  0.43931667  0.09080420  0.54523113     0.11000
H536        H  0.02663127  0.11625050  0.55709429     0.10700
H537        H  0.02727782  0.08145602  0.54217796     0.11800
H538        H  0.46061388  0.12445428  0.56369453     0.11900
H539        H  0.02686092  0.15707338  0.56190293     0.13800
H540        H  0.04530905  0.20845219  0.56756542     0.10300
H541        H  0.04423463  0.24511327  0.58151900     0.12400
H542        H  0.46262153  0.18030940  0.59723550     0.09000
H543        H  0.46397653  0.14352992  0.58363707     0.11700
C544        C  0.49785178  0.21127699  0.61898290    -0.02900
C545        C  0.02196468  0.20736593  0.61784578    -0.05500
C546        C  0.02248860  0.18446071  0.62403651    -0.20600
C547        C  0.99895820  0.16490106  0.63151157     0.25200
C548        C  0.47499921  0.16920942  0.63290072    -0.18100
C549        C  0.47451869  0.19224287  0.62669024    -0.08100
C550        C  0.00093927  0.14109045  0.63798686    -0.18400
C551        C  0.47781981  0.11654866  0.64213466    -0.23200
C552        C  0.47991022  0.09293254  0.64875061     0.27200
C553        C  0.45643479  0.07346977  0.65628794    -0.19900
C554        C  0.45736208  0.05114566  0.66283481    -0.09600
C555        C  0.48172018  0.04763585  0.66190241    -0.10100
C556        C  0.00494812  0.06644477  0.65410627    -0.03100
C557        C  0.00412342  0.08895890  0.64758671    -0.18200
H558        H  0.04038966  0.22203257  0.61208682     0.10900
H559        H  0.04132326  0.18189468  0.62290243     0.11000
H560        H  0.45679730  0.15524217  0.63889366     0.10700
H561        H  0.45578503  0.19499227  0.62775159     0.11800
H562        H  0.02247936  0.14404848  0.63921512     0.11900
H563        H  0.45628133  0.11360360  0.64090561     0.13800
H564        H  0.43742637  0.07579242  0.65726590     0.10300
H565        H  0.43913132  0.03668394  0.66874239     0.12400
H566        H  0.02389140  0.06398174  0.65325215     0.09000
H567        H  0.02231641  0.10283871  0.64157122     0.11700
C568        C  0.49264364  0.30232368  0.61998270    -0.02900
C569        C  0.46676222  0.29457253  0.62654164    -0.05500
C570        C  0.46274771  0.31565680  0.63280161    -0.20600
C571        C  0.48470945  0.34482895  0.63285543     0.25200
C572        C  0.01089410  0.35245195  0.62648919    -0.18100
C573        C  0.01481061  0.33139071  0.62016549    -0.08100
C574        C  0.47912743  0.36683528  0.63912023    -0.18400
C575        C  0.00031347  0.39203223  0.64400519    -0.23200
C576        C  0.99501003  0.41400127  0.65046219     0.27200
C577        C  0.01494444  0.43234233  0.65974784    -0.19900
C578        C  0.01110110  0.45352350  0.66595762    -0.09600
C579        C  0.48743741  0.45715840  0.66288374    -0.10100
C580        C  0.46779748  0.43938510  0.65337538    -0.03100
C581        C  0.47141848  0.41785396  0.64725967    -0.18200
H582        H  0.44932495  0.27231371  0.62648244     0.10900
H583        H  0.44233634  0.30918412  0.63756747     0.11000
H584        H  0.02807907  0.37474486  0.62603013     0.10700
H585        H  0.03498250  0.33786440  0.61518161     0.11800
H586        H  0.45670276  0.36140644  0.64027555     0.11900
H587        H  0.02245422  0.39616896  0.64396383     0.13800
H588        H  0.03344013  0.43007154  0.66230818     0.10300
H589        H  0.02662629  0.46713947  0.67319564     0.12400
H590        H  0.44945765  0.44192451  0.65082976     0.09000
H591        H  0.45604700  0.40464288  0.63990743     0.11700
C592        C  0.05150569  0.05714473  0.48159967    -0.02900
C593        C  0.04202930  0.05886881  0.46918999    -0.05500
C594        C  0.06175909  0.07670563  0.45993381    -0.20600
C595        C  0.09115172  0.09377223  0.46302842     0.25200
C596        C  0.10078858  0.09191712  0.47539971    -0.18100
C597        C  0.08112232  0.07346960  0.48458234    -0.08100
C598        C  0.11129329  0.11364872  0.45325629    -0.18400
C599        C  0.13112325  0.14097289  0.45627671    -0.23200
C600        C  0.14996037  0.16221285  0.44657997     0.27200
C601        C  0.15715287  0.19113411  0.44812772    -0.19900
C602        C  0.17625228  0.21216436  0.43965473    -0.09600
C603        C  0.18919177  0.20483827  0.42963900    -0.10100
C604        C  0.18174956  0.17575888  0.42797228    -0.03100
C605        C  0.16202359  0.15452164  0.43630408    -0.18200
H606        H  0.01931569  0.04632418  0.46662691     0.10900
H607        H  0.05395614  0.07778264  0.45044155     0.11000
H608        H  0.12350390  0.10462786  0.47792783     0.10700
H609        H  0.08893677  0.07245082  0.49407618     0.11800
H610        H  0.10792067  0.10664999  0.44325908     0.11900
H611        H  0.13209801  0.14868306  0.46606965     0.13800
H612        H  0.14809653  0.19749860  0.45598312     0.10300
H613        H  0.18159823  0.23441342  0.44113528     0.12400
H614        H  0.19194171  0.16964200  0.42053074     0.09000
H615        H  0.15720812  0.13238800  0.43505376     0.11700
C616        C  0.42109634  0.44682539  0.48174896    -0.02900
C617        C  0.42977553  0.44419703  0.46928815    -0.05500
C618        C  0.40930982  0.42640290  0.46015062    -0.20600
C619        C  0.37997157  0.41022856  0.46343571     0.25200
C620        C  0.37115217  0.41314235  0.47584234    -0.18100
C621        C  0.39155779  0.43158530  0.48488903    -0.08100
C622        C  0.35909183  0.38993651  0.45386653    -0.18400
C623        C  0.33876771  0.36306842  0.45716572    -0.23200
C624        C  0.31960970  0.34111695  0.44765031     0.27200
C625        C  0.31155708  0.31213266  0.44972268    -0.19900
C626        C  0.29267311  0.29060847  0.44125237    -0.09600
C627        C  0.28091696  0.29755351  0.43067488    -0.10100
C628        C  0.28896612  0.32662478  0.42856913    -0.03100
C629        C  0.30840017  0.34830660  0.43692368    -0.18200
H630        H  0.45241900  0.45599146  0.46660372     0.10900
H631        H  0.41649312  0.42455938  0.45061973     0.11000
H632        H  0.34851689  0.40119240  0.47851965     0.10700
H633        H  0.38436386  0.43338344  0.49442083     0.11800
H634        H  0.36243744  0.39605203  0.44379202     0.11900
H635        H  0.33776765  0.35614211  0.46706325     0.13800
H636        H  0.31993589  0.30613674  0.45793152     0.10300
H637        H  0.28683095  0.26836816  0.44307246     0.12400
H638        H  0.27966629  0.33245403  0.42066544     0.09000
H639        H  0.31382763  0.37047039  0.43525399     0.11700
C640        C  0.19054015  0.20447934  0.40057121    -0.02900
C641        C  0.19730609  0.18889002  0.39165530    -0.05500
C642        C  0.17533929  0.16595498  0.38467480    -0.20600
C643        C  0.14617264  0.15809524  0.38647103     0.25200
C644        C  0.13955605  0.17444062  0.39510954    -0.18100
C645        C  0.16153739  0.19734796  0.40208665    -0.08100
C646        C  0.12353771  0.13323338  0.37895289    -0.18400
C647        C  0.09534357  0.11853345  0.38229729    -0.23200
C648        C  0.07266222  0.09399169  0.37469314     0.27200
C649        C  0.04375926  0.08749010  0.37593398    -0.19900
C650        C  0.02172831  0.06491498  0.36884029    -0.09600
C651        C  0.02819581  0.04834867  0.36038480    -0.10100
C652        C  0.05688677  0.05408496  0.35944078    -0.03100
C653        C  0.07895250  0.07668416  0.36652323    -0.18200
H654        H  0.21956571  0.19412516  0.39028519     0.10900
H655        H  0.18112255  0.15402787  0.37797907     0.11000
H656        H  0.11759038  0.17001917  0.39642943     0.10700
H657        H  0.15591578  0.20954047  0.40869765     0.11800
H658        H  0.13064811  0.12677340  0.37040968     0.11900
H659        H  0.08811843  0.12492141  0.39081445     0.13800
H660        H  0.03827690  0.10026373  0.38225409     0.10300
H661        H  0.99971158  0.06077806  0.36972381     0.12400
H662        H  0.06219509  0.04114686  0.35314331     0.09000
H663        H  0.10072559  0.08023001  0.36566027     0.11700
C664        C  0.43327183  0.45777412  0.35827210    -0.02900
C665        C  0.40504183  0.45094415  0.35482363    -0.05500
C666        C  0.38111129  0.42897741  0.36119967    -0.20600
C667        C  0.38486115  0.41341494  0.37115302     0.25200
C668        C  0.41321784  0.42102533  0.37490728    -0.18100
C669        C  0.43712322  0.44292039  0.36850077    -0.08100
C670        C  0.35874561  0.38979634  0.37747159    -0.18400
C671        C  0.35864023  0.36742656  0.38352718    -0.23200
C672        C  0.33262907  0.34320887  0.38964216     0.27200
C673        C  0.33675017  0.32595367  0.39860862    -0.19900
C674        C  0.31312792  0.30300835  0.40466416    -0.09600
C675        C  0.28481636  0.29681586  0.40187720    -0.10100
C676        C  0.28045748  0.31333596  0.39262216    -0.03100
C677        C  0.30410692  0.33634668  0.38655196    -0.18200
H678        H  0.40153440  0.46250624  0.34713780     0.10900
H679        H  0.35955287  0.42386100  0.35823133     0.11000
H680        H  0.41715701  0.41041183  0.38285054     0.10700
H681        H  0.45870418  0.44806224  0.37143351     0.11800
H682        H  0.33890113  0.39070900  0.37673245     0.11900
H683        H  0.37855757  0.36659261  0.38412395     0.13800
H684        H  0.35839603  0.33044982  0.40105416     0.10300
H685        H  0.31693562  0.29025946  0.41165439     0.12400
H686        H  0.25873723  0.30873972  0.39027537     0.09000
H687        H  0.29978724  0.34834965  0.37939387     0.11700
C688        C  0.26019344  0.77390113  0.40897984     0.02600
C689        C  0.25886449  0.77410882  0.42256815     0.02600
C690        C  0.23543817  0.75124853  0.42880916    -0.17900
C691        C  0.21310198  0.72820887  0.42198582     0.02600
C692        C  0.21419705  0.72798999  0.40836944     0.02600
C693        C  0.23779037  0.75090695  0.40204607    -0.17900
H694        H  0.23877739  0.75081745  0.39162910     0.04600
H695        H  0.23459785  0.75138771  0.43923141     0.04600
C696        C  0.00192309  0.78395489  0.59905489     0.02600
C697        C  0.99551062  0.78029160  0.61236957     0.02600
C698        C  0.99295032  0.75570048  0.61856664    -0.17900
C699        C  0.99690628  0.73497923  0.61178776     0.02600
C700        C  0.00208323  0.73818065  0.59837432     0.02600
C701        C  0.00488867  0.76279368  0.59226532    -0.17900
H702        H  0.00864879  0.76515963  0.58197407     0.04600
H703        H  0.98900507  0.75327841  0.62883852     0.04600
O704        O  0.03732035  0.52866199  0.50080429    -0.57500
C705        C  0.48913249  0.96024178  0.52628583     0.75100
O706        O  0.46344544  0.52785033  0.51902125    -0.58600
C707        C  0.03048778  0.53838665  0.49111147     0.75100
C708        C  0.44273078  0.96531802  0.49149134     0.77500
Cd709      Cd  0.48718706  0.50208214  0.50937841     1.37500
O710        O  0.01038548  0.97606600  0.51910458    -0.57500
O711        O  0.46852844  0.97024424  0.49076844    -0.56300
C712        C  0.48483267  0.54447971  0.52604915     0.77500
O713        O  0.43687939  0.97692435  0.50083484    -0.58700
O714        O  0.46742774  0.96380201  0.52550769    -0.57100
O715        O  0.00417607  0.53161293  0.49012872    -0.57100
O716        O  0.00693188  0.54157546  0.52518264    -0.56300
C717        C  0.48243846  0.77642255  0.74154814     0.02600
C718        C  0.48525680  0.77753313  0.75512582     0.02600
C719        C  0.48689217  0.75517834  0.76144012    -0.17900
C720        C  0.48477230  0.73135038  0.75465331     0.02600
C721        C  0.48071331  0.72957114  0.74113936     0.02600
C722        C  0.47956762  0.75220115  0.73475546    -0.17900
H723        H  0.47737700  0.75141035  0.72437222     0.04600
H724        H  0.48888077  0.75580259  0.77183228     0.04600
O725        O  0.02228096  0.56079054  0.83500923    -0.57500
C726        C  0.03739501  0.01241395  0.86314166     0.75100
O727        O  0.44812056  0.98883810  0.85524081    -0.58600
C728        C  0.50112029  0.55705681  0.82802306     0.75100
C729        C  0.49450395  0.97016476  0.82680238     0.77500
Cd730      Cd  0.49669793  0.01262857  0.84483974     1.37500
O731        O  0.04304526  0.53407147  0.85671846    -0.57500
O732        O  0.01713369  0.99413708  0.82897224    -0.56300
C733        C  0.45255628  0.50963659  0.86251727     0.77500
O734        O  0.47188962  0.96564492  0.83282907    -0.58700
O735        O  0.51264826  0.99069384  0.86109360    -0.57100
O736        O  0.47818225  0.53282110  0.82895713    -0.57100
O737        O  0.47748150  0.53164507  0.86146332    -0.56300
C738        C  0.21995991  0.50527790  0.94899931     0.02600
C739        C  0.22085359  0.50733337  0.93540856     0.02600
C740        C  0.24274569  0.50563100  0.92868204    -0.17900
C741        C  0.26435551  0.50279382  0.93509019     0.02600
C742        C  0.26436325  0.50203715  0.94870414     0.02600
C743        C  0.24166644  0.50244924  0.95548046    -0.17900
H744        H  0.24166582  0.50198729  0.96590502     0.04600
H745        H  0.24275577  0.50623011  0.91825414     0.04600
C746        C  0.26213694  0.76875165  0.28084683     0.02600
C747        C  0.26218797  0.76952836  0.26724165     0.02600
C748        C  0.24023288  0.74638815  0.26035748    -0.17900
C749        C  0.21800290  0.72242459  0.26660597     0.02600
C750        C  0.21725894  0.72168826  0.28022941     0.02600
C751        C  0.23945893  0.74491047  0.28715982    -0.17900
H752        H  0.23920129  0.74432812  0.29758376     0.04600
H753        H  0.24055428  0.74696048  0.24992316     0.04600
C754        C  0.45879908  0.98030528  0.35116366     0.02600
C755        C  0.46136930  0.97987511  0.33758295     0.02600
C756        C  0.48549945  0.50307365  0.33167011    -0.17900
C757        C  0.00719233  0.52610572  0.33883665     0.02600
C758        C  0.00517175  0.52568586  0.35241847     0.02600
C759        C  0.48091563  0.50312022  0.35843614    -0.17900
H760        H  0.47919953  0.50325239  0.36882644     0.04600
H761        H  0.48728643  0.50315346  0.32128170     0.04600
O762        O  0.46170074  0.94268962  0.18607549    -0.57500
C763        C  0.02634478  0.48671531  0.16193283     0.75100
O764        O  0.45285547  0.51131786  0.17412876    -0.58600
C765        C  0.45022821  0.94766468  0.19570496     0.75100
C766        C  0.02917057  0.54116405  0.19477856     0.77500
Cd767      Cd  0.48758365  0.49417576  0.17881272     1.37500
O768        O  0.01613172  0.97065328  0.17190301    -0.57500
O769        O  0.02407788  0.51545666  0.19582461    -0.56300
C770        C  0.44508647  0.49888460  0.16327752     0.77500
O771        O  0.01519058  0.54564811  0.18609538    -0.58700
O772        O  0.01902219  0.50562504  0.15994289    -0.57100
O773        O  0.45648493  0.97361386  0.19741517    -0.57100
O774        O  0.45838657  0.98523221  0.15981425    -0.56300
C775        C  0.22263808  0.00984055  0.07639021     0.02600
C776        C  0.22015173  0.00653332  0.08997523     0.02600
C777        C  0.24251926  0.00600544  0.09694771    -0.17900
C778        C  0.26646417  0.00708470  0.09077698     0.02600
C779        C  0.26778949  0.00811099  0.07719152     0.02600
C780        C  0.24643871  0.01036324  0.07022747    -0.17900
H781        H  0.24828626  0.01222263  0.05984918     0.04600
H782        H  0.24102936  0.00418485  0.10733387     0.04600
C783        C  0.01426524  0.50107169  0.00693284     0.02600
C784        C  0.01710823  0.50790148  0.02027135     0.02600
C785        C  0.49507451  0.51051193  0.02649667    -0.17900
C786        C  0.47067890  0.50696274  0.01978578     0.02600
C787        C  0.46788918  0.50041458  0.00648597     0.02600
C788        C  0.48988518  0.49788681  0.00018250    -0.17900
H789        H  0.48754797  0.49247289  0.99002351     0.04600
H790        H  0.49721620  0.51605520  0.03664129     0.04600
C791        C  0.48404562  0.97954705  0.66996742     0.02600
C792        C  0.48011338  0.97826360  0.68347438     0.02600
C793        C  0.47862670  0.50086394  0.68984700    -0.17900
C794        C  0.48066062  0.52449138  0.68304258     0.02600
C795        C  0.48255434  0.52475340  0.66946061     0.02600
C796        C  0.48420183  0.50234278  0.66303526    -0.17900
H797        H  0.98637985  0.50297994  0.65265757     0.04600
H798        H  0.47658848  0.50035194  0.70022960     0.04600
C799        C  0.29043585  0.00540857  0.07004388    -0.02900
C800        C  0.29399979  0.98131425  0.07193324    -0.05500
C801        C  0.31617468  0.97932823  0.06567721    -0.20600
C802        C  0.33381579  0.50072566  0.05676599     0.25200
C803        C  0.32965977  0.52450450  0.05457606    -0.18100
C804        C  0.30884969  0.02707932  0.06152082    -0.08100
C805        C  0.35721747  0.49756951  0.05048047    -0.18400
C806        C  0.38104615  0.51968262  0.04523180    -0.23200
C807        C  0.40423931  0.51614149  0.03905717     0.27200
C808        C  0.42057075  0.53520279  0.02920385    -0.19900
C809        C  0.44248527  0.53253404  0.02307847    -0.09600
C810        C  0.44865244  0.51090598  0.02679732    -0.10100
C811        C  0.43304991  0.49239457  0.03692292    -0.03100
C812        C  0.41093802  0.49489585  0.04299346    -0.18200
H813        H  0.27974263  0.96416679  0.07835826     0.10900
H814        H  0.31863220  0.96063983  0.06741437     0.11000
H815        H  0.34306003  0.54141440  0.04791815     0.10700
H816        H  0.30628348  0.04573116  0.05987791     0.11800
H817        H  0.35479059  0.47610580  0.05037765     0.11900
H818        H  0.38370041  0.54119707  0.04513103     0.13800
H819        H  0.41604222  0.55192653  0.02610312     0.10300
H820        H  0.45448817  0.54716522  0.01534554     0.12400
H821        H  0.43945341  0.97697338  0.04030979     0.09000
H822        H  0.39945017  0.48044436  0.05083918     0.11700
C823        C  0.04275055  0.51265904  0.02798325    -0.02900
C824        C  0.03872503  0.49849130  0.03979923    -0.05500
C825        C  0.06249275  0.50237263  0.04705763    -0.20600
C826        C  0.09075381  0.51994950  0.04253880     0.25200
C827        C  0.09609766  0.03472546  0.03081823    -0.18100
C828        C  0.07237540  0.03171440  0.02369912    -0.08100
C829        C  0.11527926  0.52250797  0.05028375    -0.18400
C830        C  0.13785500  0.52164155  0.04495880    -0.23200
C831        C  0.15989451  0.51956033  0.05289213     0.27200
C832        C  0.17126017  0.00114631  0.04908699    -0.19900
C833        C  0.19102362  0.99781598  0.05672658    -0.09600
C834        C  0.20123719  0.01320885  0.06837136    -0.10100
C835        C  0.19048529  0.53204027  0.07194412    -0.03100
C836        C  0.17024320  0.53502826  0.06449572    -0.18200
H837        H  0.01710817  0.48405887  0.04333696     0.10900
H838        H  0.05878271  0.49099636  0.05608386     0.09200
H839        H  0.11780328  0.04878726  0.02728449     0.10700
H840        H  0.07626815  0.04366230  0.01483612     0.11800
H841        H  0.11303805  0.52164200  0.06068794     0.11900
H842        H  0.13915230  0.01857078  0.03471082     0.13800
H843        H  0.16359491  0.98888228  0.04020942     0.10300
H844        H  0.19808865  0.98291915  0.05359253     0.12400
H845        H  0.19857787  0.54467666  0.08069783     0.09000
H846        H  0.16297854  0.54970326  0.06772096     0.11700
C847        C  0.28970874  0.00704548  0.09872371    -0.02900
C848        C  0.31901835  0.02715425  0.09644484    -0.05500
C849        C  0.34081746  0.02625634  0.10355758    -0.20600
C850        C  0.33374402  0.00600648  0.11341964     0.25200
C851        C  0.30444236  0.98615838  0.11586169    -0.18100
C852        C  0.28265231  0.98665754  0.10855991    -0.08100
C853        C  0.35737142  0.00570704  0.12081310    -0.18400
C854        C  0.35485440  0.99876848  0.13335371    -0.23200
C855        C  0.37885231  0.99947451  0.14086792     0.27200
C856        C  0.38143972  0.00648179  0.15401259    -0.19900
C857        C  0.40276897  0.50693838  0.16093983    -0.09600
C858        C  0.42252127  0.49986824  0.15538327    -0.10100
C859        C  0.41981940  0.49249179  0.14226763    -0.03100
C860        C  0.39862338  0.99248979  0.13523885    -0.18200
H861        H  0.32406269  0.54306386  0.08863316     0.10900
H862        H  0.36325442  0.04171618  0.10149854     0.11000
H863        H  0.29834449  0.96982598  0.12320443     0.10700
H864        H  0.26026997  0.97076380  0.11044204     0.11800
H865        H  0.37801564  0.01328927  0.11601262     0.11900
H866        H  0.33526061  0.99417907  0.13848937     0.13800
H867        H  0.36627708  0.01167942  0.15856881     0.10300
H868        H  0.40418126  0.51239500  0.17106470     0.12400
H869        H  0.43464395  0.48676454  0.13776676     0.09000
H870        H  0.39675132  0.98625789  0.12520581     0.11700
C871        C  0.04734443  0.48414038  0.15351463    -0.02900
C872        C  0.06156486  0.46939261  0.15768660    -0.05500
C873        C  0.08364121  0.46965834  0.15026393    -0.20600
C874        C  0.09129046  0.48393884  0.13839457     0.25200
C875        C  0.07633249  0.49778462  0.13400653    -0.18100
C876        C  0.05469313  0.49801686  0.14153304    -0.08100
C877        C  0.11644991  0.48625375  0.13125113    -0.18400
C878        C  0.11760265  0.48635963  0.11832371    -0.23200
C879        C  0.14371748  0.49100464  0.11124469     0.27200
C880        C  0.14059179  0.47594118  0.09971404    -0.19900
C881        C  0.16612437  0.98118260  0.09304569    -0.09600
C882        C  0.19403989  0.00194943  0.09718620    -0.10100
C883        C  0.19597906  0.51649453  0.10838597    -0.03100
C884        C  0.17163879  0.51135456  0.11552676    -0.18200
H885        H  0.05638137  0.45858275  0.16690044     0.10900
H886        H  0.09501006  0.45899268  0.15385594     0.11000
H887        H  0.08216584  0.50947834  0.12501481     0.10700
H888        H  0.04409574  0.50956043  0.13808617     0.11800
H889        H  0.13434399  0.48748618  0.13679494     0.11900
H890        H  0.09861621  0.48216030  0.11275313     0.13800
H891        H  0.11924900  0.46024798  0.09622184     0.10300
H892        H  0.16320756  0.96850818  0.08442810     0.12400
H893        H  0.21723105  0.53260216  0.11179742     0.09000
H894        H  0.17462572  0.52377711  0.12423662     0.11700
C895        C  0.43047931  0.92473295  0.20455274    -0.02900
C896        C  0.42474593  0.89611252  0.20321562    -0.05500
C897        C  0.40565193  0.87469208  0.21165907    -0.20600
C898        C  0.39171172  0.88147806  0.22140917     0.25200
C899        C  0.39802418  0.91025050  0.22289021    -0.18100
C900        C  0.41713575  0.93158698  0.21454485    -0.08100
C901        C  0.37097725  0.85844432  0.23005996    -0.18400
C902        C  0.34801133  0.85909443  0.23510156    -0.23200
C903        C  0.32672418  0.83636959  0.24366644     0.27200
C904        C  0.29801136  0.83066777  0.24350913    -0.19900
C905        C  0.27722077  0.80926209  0.25136280    -0.09600
C906        C  0.28493221  0.79362826  0.25973037    -0.10100
C907        C  0.31379670  0.79979695  0.26019236    -0.03100
C908        C  0.33458776  0.82101752  0.25220170    -0.18200
H909        H  0.43494283  0.89030190  0.19565672     0.10900
H910        H  0.40136309  0.85270797  0.21044297     0.11000
H911        H  0.38846603  0.91643709  0.23058276     0.10700
H912        H  0.42138698  0.95351787  0.21591400     0.11800
H913        H  0.37380908  0.83990853  0.23174489     0.11900
H914        H  0.34356522  0.87608551  0.23225265     0.13800
H915        H  0.29154312  0.84243305  0.23710772     0.10300
H916        H  0.25501386  0.80472601  0.25087514     0.12400
H917        H  0.32007329  0.78784075  0.26656495     0.09000
H918        H  0.35675262  0.82551927  0.25278656     0.11700
C919        C  0.19612340  0.69877763  0.25845926    -0.02900
C920        C  0.20502609  0.68508976  0.24945519    -0.05500
C921        C  0.18482009  0.66337929  0.24140711    -0.20600
C922        C  0.15544814  0.65535138  0.24203773     0.25200
C923        C  0.14647660  0.66892019  0.25113418    -0.18100
C924        C  0.16670557  0.69052011  0.25926766    -0.08100
C925        C  0.13466009  0.63216151  0.23335511    -0.18400
C926        C  0.11042495  0.63113980  0.22890267    -0.23200
C927        C  0.08997382  0.60797287  0.22009490     0.27200
C928        C  0.07414977  0.61413036  0.21109762    -0.19900
C929        C  0.05458087  0.59258312  0.20272537    -0.09600
C930        C  0.05018770  0.56435775  0.20336266    -0.10100
C931        C  0.06573006  0.55813844  0.21251371    -0.03100
C932        C  0.08540250  0.57967898  0.22079064    -0.18200
H933        H  0.22766158  0.69119297  0.24870142     0.10900
H934        H  0.19218888  0.65307395  0.23455078     0.11000
H935        H  0.12385735  0.66265095  0.25208761     0.10700
H936        H  0.15947377  0.70093129  0.26612694     0.11800
H937        H  0.14041798  0.61638898  0.22993983     0.11900
H938        H  0.10618142  0.64858342  0.23120751     0.13800
H939        H  0.07714184  0.63573151  0.21047375     0.10300
H940        H  0.04277517  0.59795213  0.19582485     0.12400
H941        H  0.06259468  0.53651711  0.21333239     0.09000
H942        H  0.09657550  0.57397591  0.22787916     0.11700
C943        C  0.19399825  0.69690175  0.28741601    -0.02900
C944        C  0.18730635  0.66841008  0.28469000    -0.05500
C945        C  0.16466121  0.64512569  0.29108196    -0.20600
C946        C  0.14829503  0.64969026  0.30044523     0.25200
C947        C  0.15568302  0.67836259  0.30350325    -0.18100
C948        C  0.17826529  0.70166884  0.29702898    -0.08100
C949        C  0.12436931  0.62393754  0.30691827    -0.18400
C950        C  0.10247650  0.62418375  0.31337114    -0.23200
C951        C  0.07817376  0.59830869  0.31963707     0.27200
C952        C  0.06040881  0.60265730  0.32829835    -0.19900
C953        C  0.03716763  0.57925420  0.33434611    -0.09600
C954        C  0.03121159  0.55085614  0.33196245    -0.10100
C955        C  0.04846218  0.54627186  0.32312223    -0.03100
C956        C  0.07168278  0.56969177  0.31700229    -0.18200
H957        H  0.19956475  0.66414042  0.27756313     0.10900
H958        H  0.15979710  0.62338174  0.28863496     0.11000
H959        H  0.14443078  0.68307102  0.31094444     0.10700
H960        H  0.18324467  0.72347258  0.29941883     0.11800
H961        H  0.12483984  0.60392096  0.30603397     0.11900
H962        H  0.10203911  0.64424633  0.31417539     0.13800
H963        H  0.06456924  0.62431079  0.33043449     0.10300
H964        H  0.02384008  0.58333060  0.34094576     0.12400
H965        H  0.04414294  0.52453853  0.32106349     0.09000
H966        H  0.08406689  0.56502228  0.31014618     0.11700
C967        C  0.43934455  0.95578581  0.32951050    -0.02900
C968        C  0.42692226  0.96170143  0.31887824    -0.05500
C969        C  0.40508944  0.93913983  0.31168951    -0.20600
C970        C  0.39501830  0.91015740  0.31499583     0.25200
C971        C  0.40825718  0.90423240  0.32537720    -0.18100
C972        C  0.43028083  0.92683075  0.33249151    -0.08100
C973        C  0.37110403  0.88704683  0.30721452    -0.18400
C974        C  0.35456849  0.85945526  0.31110698    -0.23200
C975        C  0.33063548  0.83676641  0.30322076     0.27200
C976        C  0.32250051  0.80768208  0.30524853    -0.19900
C977        C  0.30021685  0.78567390  0.29801307    -0.09600
C978        C  0.28539629  0.79227525  0.28866369    -0.10100
C979        C  0.29285654  0.82127061  0.28689024    -0.03100
C980        C  0.31528439  0.84332488  0.29406215    -0.18200
H981        H  0.43365231  0.98382483  0.31631309     0.10900
H982        H  0.39562331  0.94438156  0.30364609     0.11000
H983        H  0.40208258  0.88232595  0.32799679     0.10700
H984        H  0.44012660  0.92169705  0.34041309     0.11800
H985        H  0.36681433  0.89334853  0.29792444     0.11900
H986        H  0.35879058  0.85275923  0.32029996     0.13800
H987        H  0.33371068  0.80199657  0.31234050     0.10300
H988        H  0.29477117  0.76346487  0.29959801     0.12400
H989        H  0.28119070  0.82683892  0.27999891     0.09000
H990        H  0.32007340  0.86532902  0.29256623     0.11700
C991        C  0.28916396  0.50357248  0.95596653    -0.02900
C992        C  0.31723891  0.52670951  0.95391014    -0.05500
C993        C  0.34088971  0.52816109  0.96041900    -0.20600
C994        C  0.33716483  0.50643659  0.96907485     0.25200
C995        C  0.30986620  0.98542933  0.97161504    -0.18100
C996        C  0.28507444  0.48224125  0.96491530    -0.08100
C997        C  0.36347713  0.50898882  0.97544640    -0.18400
C998        C  0.36549776  0.98872790  0.98174631    -0.23200
C999        C  0.39248927  0.99168355  0.98755930     0.27200
C1000       C  0.39011642  0.97326812  0.99767032    -0.19900
C1001       C  0.41488798  0.97573107  0.00356209    -0.09600
C1002       C  0.44178137  0.49552032  0.99918741    -0.10100
C1003       C  0.44432952  0.51339698  0.98883459    -0.03100
C1004       C  0.41954324  0.51080452  0.98285887    -0.18200
H1005       H  0.32085063  0.54367595  0.94721099     0.10900
H1006       H  0.36230818  0.54621101  0.95854042     0.11000
H1007       H  0.30565891  0.96871895  0.97852003     0.10700
H1008       H  0.26457953  0.96649366  0.96697607     0.11800
H1009       H  0.38297766  0.53001044  0.97503203     0.11900
H1010       H  0.34588457  0.96802615  0.98281936     0.13800
H1011       H  0.36900027  0.95727601  0.00119556     0.10300
H1012       H  0.41242149  0.96166198  0.01152166     0.12400
H1013       H  0.46551658  0.52988719  0.98560761     0.09000
H1014       H  0.42235997  0.52487239  0.97486983     0.11700
C1015       C  0.03597633  0.49642769  0.99992212    -0.02900
C1016       C  0.04450993  0.97726926  0.00412363    -0.05500
C1017       C  0.06627136  0.97439628  0.99790920    -0.20600
C1018       C  0.08046783  0.49098193  0.98770873     0.25200
C1019       C  0.07160362  0.50997780  0.98285033    -0.18100
C1020       C  0.04956298  0.51263828  0.98890801    -0.08100
C1021       C  0.10447870  0.48827187  0.98180326    -0.18400
C1022       C  0.12703993  0.51041994  0.97581115    -0.23200
C1023       C  0.15147844  0.50877019  0.96962971     0.27200
C1024       C  0.17031699  0.53166525  0.96165445    -0.19900
C1025       C  0.19300897  0.53093298  0.95523769    -0.09600
C1026       C  0.19732096  0.50716913  0.95659470    -0.10100
C1027       C  0.17935469  0.48477190  0.96494552    -0.03100
C1028       C  0.15663040  0.48549271  0.97141079    -0.18200
H1029       H  0.03396462  0.96404044  0.01244514     0.10900
H1030       H  0.07218306  0.95904925  0.00158192     0.11000
H1031       H  0.08154378  0.52274396  0.97435797     0.10700
H1032       H  0.04357539  0.52788384  0.98518062     0.11800
H1033       H  0.10375787  0.96819000  0.98221773     0.11900
H1034       H  0.12766116  0.53105401  0.97525637     0.13800
H1035       H  0.16720935  0.55005606  0.96021498     0.10300
H1036       H  0.20697770  0.54875452  0.94904605     0.12400
H1037       H  0.18338482  0.96744084  0.96597009     0.09000
H1038       H  0.14382043  0.96851764  0.97728860     0.11700
C1039       C  0.43103999  0.50954374  0.87156814    -0.02900
C1040       C  0.43707832  0.53513063  0.87805591    -0.05500
C1041       C  0.41689945  0.53561064  0.88646528    -0.20600
C1042       C  0.39029092  0.51052628  0.88871738     0.25200
C1043       C  0.38519581  0.98604392  0.88207568    -0.18100
C1044       C  0.40530969  0.98542232  0.87355183    -0.08100
C1045       C  0.36923470  0.51288467  0.89731195    -0.18400
C1046       C  0.34791781  0.99182757  0.90291246    -0.23200
C1047       C  0.32750083  0.99579461  0.91129579     0.27200
C1048       C  0.31272394  0.97581730  0.92111222    -0.19900
C1049       C  0.29321144  0.97897383  0.92905215    -0.09600
C1050       C  0.28622050  0.50021511  0.92719259    -0.10100
C1051       C  0.30089276  0.52021659  0.91738606    -0.03100
C1052       C  0.32033378  0.51715729  0.90943600    -0.18200
H1053       H  0.45734873  0.55495731  0.87653844     0.10900
H1054       H  0.42210194  0.55578161  0.89121092     0.11000
H1055       H  0.36442051  0.96663347  0.88317718     0.10700
H1056       H  0.39971579  0.96549193  0.86849807     0.11800
H1057       H  0.37358073  0.53461355  0.89952963     0.11900
H1058       H  0.34468355  0.97015160  0.90186974     0.13800
H1059       H  0.31632919  0.95776847  0.92264778     0.10300
H1060       H  0.28178361  0.96307473  0.93644569     0.12400
H1061       H  0.29713537  0.53816397  0.91582786     0.09000
H1062       H  0.33061838  0.53259818  0.90177253     0.11700
C1063       C  0.05761700  0.01110460  0.87255482    -0.02900
C1064       C  0.04730463  0.48553118  0.88039539    -0.05500
C1065       C  0.06605293  0.48376559  0.88926956    -0.20600
C1066       C  0.09421354  0.50705264  0.89116349     0.25200
C1067       C  0.10306278  0.53246462  0.88394581    -0.18100
C1068       C  0.08504149  0.03517897  0.87493865    -0.08100
C1069       C  0.11339847  0.50311838  0.90045619    -0.18400
C1070       C  0.14058463  0.52367603  0.90360748    -0.23200
C1071       C  0.16012026  0.51882293  0.91226511     0.27200
C1072       C  0.18987594  0.53904512  0.91201087    -0.19900
C1073       C  0.20937415  0.53533806  0.91963059    -0.09600
C1074       C  0.19956434  0.51145149  0.92781262    -0.10100
C1075       C  0.16982206  0.49138069  0.92831897    -0.03100
C1076       C  0.15021732  0.49505160  0.92067124    -0.18200
H1077       H  0.02582707  0.46701613  0.87917236     0.10900
H1078       H  0.05851170  0.46392117  0.89462733     0.11000
H1079       H  0.12446240  0.55102618  0.88491834     0.10700
H1080       H  0.09188283  0.05531446  0.86992702     0.11800
H1081       H  0.10467534  0.48174772  0.90455738     0.11900
H1082       H  0.14977911  0.54490373  0.89933965     0.13800
H1083       H  0.19817299  0.55764310  0.90574162     0.10300
H1084       H  0.23223969  0.55114057  0.91913165     0.12400
H1085       H  0.16182727  0.47275286  0.93455151     0.09000
H1086       H  0.12748132  0.47930499  0.92150517     0.11700
C1087       C  0.50269256  0.57959459  0.81924600    -0.02900
C1088       C  0.52832291  0.60626165  0.81795176    -0.05500
C1089       C  0.52927186  0.62749465  0.80975892    -0.20600
C1090       C  0.50473913  0.62246690  0.80263017     0.25200
C1091       C  0.47904356  0.59577956  0.80400090    -0.18100
C1092       C  0.47811312  0.57460533  0.81216918    -0.08100
C1093       C  0.50634319  0.64606577  0.79445086    -0.18400
C1094       C  0.48819918  0.64155258  0.78451693    -0.23200
C1095       C  0.48841519  0.66506398  0.77673307     0.27200
C1096       C  0.46407606  0.65841870  0.76907829    -0.19900
C1097       C  0.46283234  0.67983885  0.76186015    -0.09600
C1098       C  0.48605880  0.70833028  0.76206775    -0.10100
C1099       C  0.51057887  0.71502787  0.76952780    -0.03100
C1100       C  0.51190307  0.69362684  0.77671841    -0.18200
H1101       H  0.04758195  0.61077163  0.82331366     0.10900
H1102       H  0.04925491  0.64795352  0.80899076     0.11000
H1103       H  0.45933543  0.59130844  0.79908526     0.10700
H1104       H  0.45793735  0.55438063  0.81305849     0.11800
H1105       H  0.52309109  0.66783431  0.79689188     0.11900
H1106       H  0.47178869  0.61961205  0.78206301     0.13800
H1107       H  0.44574452  0.63662987  0.76882467     0.10300
H1108       H  0.44364469  0.67426149  0.75620492     0.12400
H1109       H  0.02884130  0.73686211  0.76969042     0.09000
H1110       H  0.53148553  0.69969498  0.78209398     0.11700
C1111       C  0.48474057  0.80075660  0.76300674    -0.02900
C1112       C  0.46259494  0.80749576  0.76126006    -0.05500
C1113       C  0.46133749  0.82846928  0.76892448    -0.20600
C1114       C  0.48205639  0.84316472  0.77858408     0.25200
C1115       C  0.50410605  0.83619272  0.78046097    -0.18100
C1116       C  0.00540613  0.81523121  0.77273620    -0.08100
C1117       C  0.47899597  0.86451894  0.78679835    -0.18400
C1118       C  0.50092877  0.88570961  0.79358647    -0.23200
C1119       C  0.49792420  0.90723596  0.80168238     0.27200
C1120       C  0.02293486  0.93354305  0.80457603    -0.19900
C1121       C  0.02154646  0.95406178  0.81249463    -0.09600
C1122       C  0.49511028  0.94867411  0.81788175    -0.10100
C1123       C  0.46994573  0.92239282  0.81500158    -0.03100
C1124       C  0.47130143  0.90183748  0.80698183    -0.18200
H1125       H  0.44588124  0.79611997  0.75409847     0.10900
H1126       H  0.44392766  0.83308766  0.76735290     0.11000
H1127       H  0.01999453  0.84629404  0.78804273     0.10700
H1128       H  0.02250361  0.81020118  0.77439558     0.11800
H1129       H  0.45807942  0.86340871  0.78673706     0.11900
H1130       H  0.02247452  0.88845524  0.79275253     0.13800
H1131       H  0.04372389  0.93824232  0.80071153     0.10300
H1132       H  0.04137303  0.97403838  0.81455778     0.12400
H1133       H  0.44930343  0.91755760  0.81908206     0.09000
H1134       H  0.45163629  0.88153769  0.80527127     0.11700
C1135       C  0.47836018  0.70470792  0.73353005    -0.02900
C1136       C  0.45371008  0.68762228  0.72597297    -0.05500
C1137       C  0.45055767  0.66303697  0.71952802    -0.20600
C1138       C  0.47218028  0.65527641  0.72031787     0.25200
C1139       C  0.99701779  0.67264847  0.72780646    -0.18100
C1140       C  0.50012152  0.69716163  0.73424905    -0.08100
C1141       C  0.46776058  0.62851935  0.71360736    -0.18400
C1142       C  0.48985770  0.62467136  0.70980340    -0.23200
C1143       C  0.48625763  0.59838929  0.70298427     0.27200
C1144       C  0.00936784  0.60089113  0.69551230    -0.19900
C1145       C  0.00748551  0.57685385  0.68914981    -0.09600
C1146       C  0.48255497  0.54959263  0.69023110    -0.10100
C1147       C  0.45953776  0.54674461  0.69788012    -0.03100
C1148       C  0.46127041  0.57095539  0.70416317    -0.18200
H1149       H  0.43657176  0.69292235  0.72532471     0.10900
H1150       H  0.43112988  0.64999775  0.71391441     0.11000
H1151       H  0.01381685  0.66705504  0.72899609     0.10700
H1152       H  0.01936818  0.71003333  0.73999270     0.11800
H1153       H  0.44569709  0.61219303  0.71122290     0.11900
H1154       H  0.01190472  0.64223589  0.71113468     0.13800
H1155       H  0.02895449  0.62162882  0.69452139     0.10300
H1156       H  0.02555749  0.57949968  0.68335800     0.12400
H1157       H  0.44012827  0.52586673  0.69885049     0.09000
H1158       H  0.44330230  0.56799396  0.71009022     0.11700
C1159       C  0.47628983  0.95285661  0.69087377    -0.02900
C1160       C  0.45373383  0.92504754  0.68770704    -0.05500
C1161       C  0.45103929  0.90079409  0.69406001    -0.20600
C1162       C  0.47096494  0.90377228  0.70362392     0.25200
C1163       C  0.49312542  0.93176774  0.70704621    -0.18100
C1164       C  0.99568829  0.95608350  0.70072956    -0.08100
C1165       C  0.46744634  0.87726596  0.70998911    -0.18400
C1166       C  0.48975657  0.87541629  0.71509702    -0.23200
C1167       C  0.48700953  0.84916403  0.72149086     0.27200
C1168       C  0.51046944  0.85219215  0.72888299    -0.19900
C1169       C  0.50905158  0.82850347  0.73525171    -0.09600
C1170       C  0.48421226  0.80112281  0.73426863    -0.10100
C1171       C  0.46098967  0.79768015  0.72662125    -0.03100
C1172       C  0.46226590  0.82146301  0.72031981    -0.18200
H1173       H  0.43835803  0.92212245  0.68021095     0.10900
H1174       H  0.43359533  0.87956128  0.69134252     0.11000
H1175       H  0.00831236  0.93503230  0.71466461     0.10700
H1176       H  0.01314267  0.97737767  0.70335158     0.11800
H1177       H  0.44581296  0.85865817  0.71007582     0.11900
H1178       H  0.51132996  0.89417108  0.71467982     0.13800
H1179       H  0.52989838  0.87309545  0.72987301     0.10300
H1180       H  0.52730753  0.83154321  0.74102812     0.12400
H1181       H  0.44166985  0.77667075  0.72572791     0.09000
H1182       H  0.44393166  0.81778810  0.71449269     0.11700
C1183       C  0.50459523  0.80893085  0.59171590    -0.02900
C1184       C  0.02957914  0.82593319  0.58443947    -0.05500
C1185       C  0.03143410  0.84812602  0.57669633    -0.20600
C1186       C  0.00821447  0.85350124  0.57593005     0.25200
C1187       C  0.48355704  0.83707064  0.58359648    -0.18100
C1188       C  0.48171716  0.81485120  0.59133462    -0.08100
C1189       C  0.01051357  0.87621047  0.56697832    -0.18400
C1190       C  0.48724397  0.87622161  0.56190211    -0.23200
C1191       C  0.48895754  0.89824070  0.55270113     0.27200
C1192       C  0.46491678  0.90220947  0.55161567    -0.19900
C1193       C  0.46510380  0.92230997  0.54302763    -0.09600
C1194       C  0.48929809  0.93880134  0.53520710    -0.10100
C1195       C  0.01329358  0.93461141  0.53609939    -0.03100
C1196       C  0.01313756  0.91446129  0.54475255    -0.18200
H1197       H  0.04752054  0.82175889  0.58464613     0.10900
H1198       H  0.05078335  0.86065347  0.57102562     0.11000
H1199       H  0.46562588  0.84119959  0.58367966     0.10700
H1200       H  0.46220717  0.80191940  0.59684212     0.11800
H1201       H  0.03210493  0.89278373  0.56420348     0.11900
H1202       H  0.46568894  0.85949511  0.56462828     0.13800
H1203       H  0.44593333  0.88983365  0.55752254     0.10300
H1204       H  0.44622714  0.92495313  0.54253843     0.12400
H1205       H  0.03212129  0.94683477  0.53009547     0.09000
H1206       H  0.03172321  0.91136368  0.54498964     0.11700
C1207       C  0.48427046  0.56606403  0.53487983    -0.02900
C1208       C  0.45947419  0.56885237  0.53599843    -0.05500
C1209       C  0.45916094  0.58912864  0.54451925    -0.20600
C1210       C  0.48366365  0.60717329  0.55199905     0.25200
C1211       C  0.00835788  0.60410724  0.55096438    -0.18100
C1212       C  0.00865322  0.58386115  0.54247254    -0.08100
C1213       C  0.48237800  0.62822125  0.56104555    -0.18400
C1214       C  0.00605728  0.65232544  0.56530634    -0.23200
C1215       C  0.00471456  0.67367463  0.57411189     0.27200
C1216       C  0.02726946  0.70253014  0.57384265    -0.19900
C1217       C  0.02657503  0.72338378  0.58181024    -0.09600
C1218       C  0.00346740  0.71570411  0.59035315    -0.10100
C1219       C  0.48117510  0.68672384  0.59083501    -0.03100
C1220       C  0.48184869  0.66585369  0.58286252    -0.18200
H1221       H  0.44029644  0.55530891  0.53032785     0.10900
H1222       H  0.43976127  0.59083832  0.54522109     0.11000
H1223       H  0.02732757  0.61683856  0.55685848     0.10700
H1224       H  0.02798249  0.58200165  0.54193168     0.11800
H1225       H  0.46104741  0.62437343  0.56374372     0.11900
H1226       H  0.02722919  0.65771046  0.56162705     0.13800
H1227       H  0.04527891  0.70905475  0.56729395     0.10300
H1228       H  0.04408388  0.74555974  0.58130809     0.12400
H1229       H  0.46301991  0.68029745  0.59728066     0.09000
H1230       H  0.46454924  0.64367586  0.58364141     0.11700
C1231       C  0.49773772  0.71137211  0.61894947    -0.02900
C1232       C  0.02203497  0.70773596  0.61794224    -0.05500
C1233       C  0.02262557  0.68487333  0.62414702    -0.20600
C1234       C  0.99896206  0.66506776  0.63149107     0.25200
C1235       C  0.47483397  0.66914319  0.63276687    -0.18100
C1236       C  0.47429820  0.69214245  0.62655377    -0.08100
C1237       C  0.00094185  0.64122542  0.63794647    -0.18400
C1238       C  0.47779372  0.61659246  0.64200101    -0.23200
C1239       C  0.47983686  0.59300568  0.64866853     0.27200
C1240       C  0.45633957  0.57364325  0.65622106    -0.19900
C1241       C  0.45717792  0.55131141  0.66280173    -0.09600
C1242       C  0.48145424  0.54766600  0.66188137    -0.10100
C1243       C  0.00473227  0.56640841  0.65408641    -0.03100
C1244       C  0.00400514  0.58895342  0.64753831    -0.18200
H1245       H  0.04054231  0.72257450  0.61226889     0.10900
H1246       H  0.04160160  0.68251309  0.62311331     0.11000
H1247       H  0.45652347  0.65501108  0.63866878     0.10700
H1248       H  0.45543349  0.69470224  0.62752441     0.11800
H1249       H  0.02248607  0.64423950  0.63926054     0.11900
H1250       H  0.45624664  0.61356684  0.64068474     0.13800
H1251       H  0.43737133  0.57604095  0.65717814     0.10300
H1252       H  0.43891132  0.53691080  0.66870634     0.12400
H1253       H  0.02361591  0.56384312  0.65323994     0.09000
H1254       H  0.02221420  0.60278759  0.64151835     0.11700
C1255       C  0.49230707  0.80223014  0.62000063    -0.02900
C1256       C  0.46639053  0.79450510  0.62652477    -0.05500
C1257       C  0.46252204  0.81556084  0.63290130    -0.20600
C1258       C  0.48466877  0.84465490  0.63310576     0.25200
C1259       C  0.01085585  0.85224249  0.62675374    -0.18100
C1260       C  0.01462169  0.83122110  0.62031211    -0.08100
C1261       C  0.47927499  0.86667701  0.63946841    -0.18400
C1262       C  0.00057114  0.89169215  0.64444518    -0.23200
C1263       C  0.99551085  0.91390640  0.65080750     0.27200
C1264       C  0.01556777  0.93236043  0.66003040    -0.19900
C1265       C  0.01193967  0.95379394  0.66612397    -0.09600
C1266       C  0.48836043  0.95753436  0.66299786    -0.10100
C1267       C  0.46862797  0.93966036  0.65354700    -0.03100
C1268       C  0.47204820  0.91791455  0.64754113    -0.18200
H1269       H  0.44884530  0.77229876  0.62636706     0.10900
H1270       H  0.44209496  0.80913139  0.63764396     0.11000
H1271       H  0.02817033  0.87449108  0.62640074     0.10700
H1272       H  0.03482268  0.83766483  0.61535992     0.11800
H1273       H  0.45689967  0.86146189  0.64055364     0.11900
H1274       H  0.02262153  0.89556684  0.64447294     0.13800
H1275       H  0.03397894  0.92998146  0.66263263     0.10300
H1276       H  0.02751522  0.96746943  0.67333334     0.12400
H1277       H  0.45033605  0.94225905  0.65097683     0.09000
H1278       H  0.45660079  0.90464745  0.64022562     0.11700
C1279       C  0.05177895  0.55667725  0.48135562    -0.02900
C1280       C  0.04237545  0.55811364  0.46889075    -0.05500
C1281       C  0.06211584  0.57603255  0.45965237    -0.20600
C1282       C  0.09142761  0.59345281  0.46282056     0.25200
C1283       C  0.10099315  0.59180378  0.47523717    -0.18100
C1284       C  0.08133199  0.57329565  0.48440129    -0.08100
C1285       C  0.11156432  0.61347321  0.45308238    -0.18400
C1286       C  0.13141726  0.64075538  0.45616228    -0.23200
C1287       C  0.15035773  0.66206984  0.44651743     0.27200
C1288       C  0.15760928  0.69099307  0.44812192    -0.19900
C1289       C  0.17673508  0.71206913  0.43967540    -0.09600
C1290       C  0.18965946  0.70478925  0.42963597    -0.10100
C1291       C  0.18220738  0.67571781  0.42792997    -0.03100
C1292       C  0.16244475  0.65443373  0.43623257    -0.18200
H1293       H  0.01971029  0.54532018  0.46628099     0.10900
H1294       H  0.05436889  0.57691525  0.45012074     0.11000
H1295       H  0.12365104  0.60474605  0.47782424     0.10700
H1296       H  0.08908767  0.57249346  0.49393760     0.11800
H1297       H  0.10823813  0.60658678  0.44306984     0.11900
H1298       H  0.13236699  0.64837808  0.46596951     0.13800
H1299       H  0.14855219  0.69731706  0.45599171     0.10300
H1300       H  0.18209041  0.73431193  0.44118825     0.12400
H1301       H  0.19239798  0.66963721  0.42047345     0.09000
H1302       H  0.15759809  0.63229857  0.43494685     0.11700
C1303       C  0.42087302  0.94711610  0.48181271    -0.02900
C1304       C  0.42967376  0.94428755  0.46940656    -0.05500
C1305       C  0.40927033  0.92662944  0.46022218    -0.20600
C1306       C  0.37985487  0.91079623  0.46340508     0.25200
C1307       C  0.37090865  0.91391243  0.47575164    -0.18100
C1308       C  0.39126710  0.93222059  0.48484661    -0.08100
C1309       C  0.35902319  0.89053219  0.45381832    -0.18400
C1310       C  0.33878266  0.86363228  0.45711640    -0.23200
C1311       C  0.31970236  0.84159076  0.44761304     0.27200
C1312       C  0.31167816  0.81263854  0.44975954    -0.19900
C1313       C  0.29284688  0.79101015  0.44131576    -0.09600
C1314       C  0.28110324  0.79780817  0.43068678    -0.10100
C1315       C  0.28911210  0.82685165  0.42851155    -0.03100
C1316       C  0.30850980  0.84864178  0.43683741    -0.18200
H1317       H  0.45237070  0.95580977  0.46679972     0.10900
H1318       H  0.41655059  0.92460224  0.45074093     0.11000
H1319       H  0.34821355  0.90219598  0.47834555     0.10700
H1320       H  0.38397220  0.93417889  0.49433178     0.11800
H1321       H  0.36239216  0.89665922  0.44374567     0.11900
H1322       H  0.33781117  0.85675115  0.46702059     0.13800
H1323       H  0.32004120  0.80674575  0.45800763     0.10300
H1324       H  0.28705119  0.76880466  0.44319380     0.12400
H1325       H  0.27981599  0.83258217  0.42057263     0.09000
H1326       H  0.31391104  0.87077743  0.43510785     0.11700
C1327       C  0.19095894  0.70451826  0.40055397    -0.02900
C1328       C  0.19771131  0.68901627  0.39158041    -0.05500
C1329       C  0.17572870  0.66613849  0.38457371    -0.20600
C1330       C  0.14656187  0.65825125  0.38640246     0.25200
C1331       C  0.13997185  0.67454637  0.39508304    -0.18100
C1332       C  0.16196153  0.69738524  0.40208622    -0.08100
C1333       C  0.12387483  0.63338330  0.37889919    -0.18400
C1334       C  0.09572054  0.61865151  0.38230957    -0.23200
C1335       C  0.07295721  0.59410532  0.37474091     0.27200
C1336       C  0.04410189  0.58776600  0.37596942    -0.19900
C1337       C  0.02198823  0.56516450  0.36891936    -0.09600
C1338       C  0.02832675  0.54841073  0.36052122    -0.10100
C1339       C  0.05697049  0.55399037  0.35959142    -0.03100
C1340       C  0.07912067  0.57662028  0.36663042    -0.18200
H1341       H  0.21997019  0.69427227  0.39018516     0.10900
H1342       H  0.18149674  0.65426558  0.37783971     0.11000
H1343       H  0.11801317  0.67013019  0.39642213     0.10700
H1344       H  0.15634823  0.70952884  0.40873001     0.11800
H1345       H  0.13089263  0.62692346  0.37032494     0.11900
H1346       H  0.08857840  0.62502077  0.39085847     0.13800
H1347       H  0.03872507  0.60069169  0.38224305     0.10300
H1348       H  0.00001630  0.56116779  0.36978174     0.12400
H1349       H  0.06217904  0.54092730  0.35332649     0.09000
H1350       H  0.10086398  0.58007280  0.36578127     0.11700
C1351       C  0.43326626  0.95770465  0.35818292    -0.02900
C1352       C  0.40504268  0.95097121  0.35478370    -0.05500
C1353       C  0.38113669  0.92912938  0.36122118    -0.20600
C1354       C  0.38492093  0.91360602  0.37118158     0.25200
C1355       C  0.41328343  0.92114334  0.37488918    -0.18100
C1356       C  0.43715736  0.94290482  0.36842149    -0.08100
C1357       C  0.35884181  0.89005687  0.37754019    -0.18400
C1358       C  0.35876525  0.86769329  0.38358296    -0.23200
C1359       C  0.33279228  0.84347387  0.38970335     0.27200
C1360       C  0.33696505  0.82619718  0.39863677    -0.19900
C1361       C  0.31337514  0.80320055  0.40467642    -0.09600
C1362       C  0.28505475  0.79698543  0.40190313    -0.10100
C1363       C  0.28064129  0.81353953  0.39268816    -0.03100
C1364       C  0.30425951  0.83660525  0.38663463    -0.18200
H1365       H  0.40152396  0.96251494  0.34709291     0.10900
H1366       H  0.35957183  0.92406844  0.35829205     0.11000
H1367       H  0.41725591  0.91057392  0.38284057     0.10700
H1368       H  0.45874450  0.94799743  0.37131924     0.11800
H1369       H  0.33900433  0.89098978  0.37682751     0.11900
H1370       H  0.37867384  0.86683699  0.38414734     0.13800
H1371       H  0.35862455  0.83070898  0.40106482     0.10300
H1372       H  0.31721102  0.79043067  0.41164459     0.12400
H1373       H  0.25890562  0.80892439  0.39036129     0.09000
H1374       H  0.29990796  0.84863544  0.37950296     0.11700
C1375       C  0.75990413  0.27377345  0.40896371     0.02600
C1376       C  0.75858237  0.27396877  0.42255368     0.02600
C1377       C  0.73507049  0.25120755  0.42880085    -0.17900
C1378       C  0.71267036  0.22822138  0.42198439     0.02600
C1379       C  0.71377442  0.22797810  0.40837057     0.02600
C1380       C  0.73741958  0.25083180  0.40203806    -0.17900
H1381       H  0.73839612  0.25071377  0.39162129     0.04600
H1382       H  0.73423664  0.25136293  0.43922351     0.04600
C1383       C  0.50203712  0.28383233  0.59903817     0.02600
C1384       C  0.49583957  0.28033759  0.61237850     0.02600
C1385       C  0.49330484  0.25577676  0.61860475    -0.17900
C1386       C  0.49708073  0.23493460  0.61183080     0.02600
C1387       C  0.50208685  0.23801947  0.59840890     0.02600
C1388       C  0.50485751  0.26256888  0.59226738    -0.17900
H1389       H  0.50847079  0.26479292  0.58196400     0.04600
H1390       H  0.48947832  0.25345087  0.62888577     0.04600
O1391       O  0.53706877  0.02896061  0.50100333    -0.57500
C1392       C  0.98927012  0.46027714  0.52628062     0.75100
O1393       O  0.96293458  0.02760432  0.51915658    -0.58600
C1394       C  0.53022389  0.03874999  0.49133795     0.75100
C1395       C  0.94300061  0.46514563  0.49138736     0.77500
Cd1396     Cd  0.98688511  0.00210613  0.50950327     1.37500
O1397       O  0.51058656  0.47608594  0.51912635    -0.57500
O1398       O  0.96875618  0.46993442  0.49070572    -0.56300
C1399       C  0.98430140  0.04424337  0.52618945     0.77500
O1400       O  0.93721772  0.47697294  0.50066338    -0.58700
O1401       O  0.96753814  0.46377277  0.52540751    -0.57100
O1402       O  0.50388895  0.03188923  0.49034756    -0.57100
O1403       O  0.50645016  0.04142514  0.52532412    -0.56300
C1404       C  0.98335832  0.27720600  0.74163757     0.02600
C1405       C  0.98677396  0.27829962  0.75518611     0.02600
C1406       C  0.98885591  0.25604569  0.76133935    -0.17900
C1407       C  0.98642427  0.23222206  0.75443818     0.02600
C1408       C  0.98171036  0.23038552  0.74096524     0.02600
C1409       C  0.98023265  0.25300018  0.73472812    -0.17900
H1410       H  0.97756518  0.25220503  0.72437014     0.04600
H1411       H  0.99128050  0.25666283  0.77171092     0.04600
O1412       O  0.52343871  0.06109287  0.83457289    -0.57500
C1413       C  0.53617551  0.51196713  0.86358708     0.75100
O1414       O  0.94724457  0.48810329  0.85540872    -0.58600
C1415       C  0.00224257  0.05751639  0.82765661     0.75100
C1416       C  0.99393924  0.46993685  0.82693524     0.77500
Cd1417     Cd  0.99581301  0.51210945  0.84507010     1.37500
O1418       O  0.54368266  0.03494745  0.85669819    -0.57500
O1419       O  0.51646266  0.49397635  0.82913058    -0.56300
C1420       C  0.95364771  0.01032236  0.86242342     0.77500
O1421       O  0.97128964  0.46519096  0.83299282    -0.58700
O1422       O  0.01103684  0.49062762  0.86183958    -0.57100
O1423       O  0.97917032  0.03342721  0.82868867    -0.57100
O1424       O  0.97868946  0.03216536  0.86140207    -0.56300
C1425       C  0.72093659  0.00647010  0.94875667     0.02600
C1426       C  0.72213383  0.00862453  0.93517006     0.02600
C1427       C  0.74430602  0.00722534  0.92854822    -0.17900
C1428       C  0.76593405  0.00459112  0.93505782     0.02600
C1429       C  0.76568657  0.00381041  0.94867951     0.02600
C1430       C  0.74269345  0.00391452  0.95534686    -0.17900
H1431       H  0.74247333  0.00340091  0.96577093     0.04600
H1432       H  0.74449362  0.00786417  0.91812031     0.04600
C1433       C  0.76244630  0.26863622  0.28108419     0.02600
C1434       C  0.76230933  0.26938742  0.26747900     0.02600
C1435       C  0.74028834  0.24621104  0.26064121    -0.17900
C1436       C  0.71817067  0.22224057  0.26693292     0.02600
C1437       C  0.71762404  0.22151513  0.28055643     0.02600
C1438       C  0.73989681  0.24476710  0.28744070    -0.17900
H1439       H  0.73977219  0.24420538  0.29786462     0.04600
H1440       H  0.74045438  0.24677312  0.25020673     0.04600
C1441       C  0.95883393  0.48044827  0.35127920     0.02600
C1442       C  0.96143237  0.48007016  0.33769909     0.02600
C1443       C  0.98544032  0.00287118  0.33154597    -0.17900
C1444       C  0.50710968  0.02593585  0.33870738     0.02600
C1445       C  0.50509240  0.02556334  0.35228565     0.02600
C1446       C  0.98087131  0.00299585  0.35830980    -0.17900
H1447       H  0.97915988  0.00315384  0.36870005     0.04600
H1448       H  0.98725204  0.00292903  0.32115917     0.04600
O1449       O  0.96115683  0.44297044  0.18603609    -0.57500
C1450       C  0.52727836  0.98676728  0.16221761     0.75100
O1451       O  0.95370780  0.01117345  0.17448407    -0.58600
C1452       C  0.94934734  0.44794079  0.19553662     0.75100
C1453       C  0.52974634  0.04089318  0.19509353     0.77500
Cd1454     Cd  0.98841077  0.99401793  0.17905871     1.37500
O1455       O  0.51526399  0.47071349  0.17165688    -0.57500
O1456       O  0.52477362  0.01521892  0.19611126    -0.56300
C1457       C  0.94599210  0.99892145  0.16359541     0.77500
O1458       O  0.51581436  0.04538045  0.18638922    -0.58700
O1459       O  0.51999266  0.00571330  0.16025890    -0.57100
O1460       O  0.95530266  0.47384005  0.19709891    -0.57100
O1461       O  0.95744558  0.48510760  0.15957095    -0.56300
C1462       C  0.72157660  0.50944750  0.07607432     0.02600
C1463       C  0.71905143  0.50584760  0.08964474     0.02600
C1464       C  0.74146183  0.50527233  0.09656024    -0.17900
C1465       C  0.76546746  0.50657945  0.09033700     0.02600
C1466       C  0.76679522  0.50785394  0.07675351     0.02600
C1467       C  0.74542114  0.51018352  0.06985680    -0.17900
H1468       H  0.74726578  0.51223782  0.05948401     0.04600
H1469       H  0.73997261  0.50326446  0.10694000     0.04600
C1470       C  0.51526851  0.00217022  0.00693230     0.02600
C1471       C  0.51828319  0.00887937  0.02028773     0.02600
C1472       C  0.99637583  0.01157485  0.02659671    -0.17900
C1473       C  0.97189034  0.00809166  0.01998116     0.02600
C1474       C  0.96886465  0.00153739  0.00667655     0.02600
C1475       C  0.99079397  0.99904620  0.00027633    -0.17900
H1476       H  0.98832019  0.99367739  0.99011165     0.04600
H1477       H  0.99865801  0.01707599  0.03674787     0.04600
C1478       C  0.98315178  0.47917278  0.66987672     0.02600
C1479       C  0.97944105  0.47800430  0.68340119     0.02600
C1480       C  0.97916130  0.00106586  0.68992280    -0.17900
C1481       C  0.98112561  0.02467178  0.68310104     0.02600
C1482       C  0.98303605  0.02488699  0.66951523     0.02600
C1483       C  0.98497165  0.00262477  0.66311240    -0.17900
H1484       H  0.48720886  0.00326973  0.65273722     0.04600
H1485       H  0.97704067  0.00050662  0.70030101     0.04600
C1486       C  0.78932289  0.50508086  0.06953323    -0.02900
C1487       C  0.79283058  0.48095419  0.07141926    -0.05500
C1488       C  0.81483205  0.47881028  0.06509326    -0.20600
C1489       C  0.83528099  0.00138337  0.05742959     0.25200
C1490       C  0.83108122  0.02514226  0.05525936    -0.18100
C1491       C  0.80759354  0.52660930  0.06091579    -0.08100
C1492       C  0.85881659  0.99837954  0.05117700    -0.18400
C1493       C  0.88249821  0.02052462  0.04584418    -0.23200
C1494       C  0.90568391  0.01710571  0.03958332     0.27200
C1495       C  0.92173510  0.03611664  0.02966365    -0.19900
C1496       C  0.94359776  0.03353184  0.02343720    -0.09600
C1497       C  0.94998720  0.01202985  0.02711408    -0.10100
C1498       C  0.93467836  0.99358911  0.03730877    -0.03100
C1499       C  0.91262341  0.99601092  0.04348284    -0.18200
H1500       H  0.77865839  0.46389249  0.07789859     0.10900
H1501       H  0.81726411  0.46011179  0.06684456     0.11000
H1502       H  0.84455761  0.04217593  0.04866995     0.10700
H1503       H  0.80504710  0.54526808  0.05925852     0.11800
H1504       H  0.85655021  0.97698167  0.05111418     0.11900
H1505       H  0.88500291  0.04197381  0.04569881     0.13800
H1506       H  0.91701494  0.05272498  0.02658572     0.10300
H1507       H  0.95536392  0.04810803  0.01565127     0.12400
H1508       H  0.93765765  0.47568338  0.03995461     0.09000
H1509       H  0.90135495  0.98160473  0.05137230     0.11700
C1510       C  0.54388438  0.01328323  0.02795896    -0.02900
C1511       C  0.53973976  0.99906538  0.03977293    -0.05500
C1512       C  0.56341604  0.00268589  0.04703229    -0.20600
C1513       C  0.59172501  0.02003083  0.04252012     0.25200
C1514       C  0.59499125  0.53463464  0.03084590    -0.18100
C1515       C  0.57117712  0.53134622  0.02372734    -0.08100
C1516       C  0.61615941  0.02246092  0.05031511    -0.18400
C1517       C  0.63864442  0.02128779  0.04506081    -0.23200
C1518       C  0.66071175  0.01935076  0.05305905     0.27200
C1519       C  0.67042830  0.50142376  0.04880643    -0.19900
C1520       C  0.69008379  0.49785979  0.05640900    -0.09600
C1521       C  0.70020682  0.51296879  0.06812261    -0.10100
C1522       C  0.69150096  0.03234219  0.07207629    -0.03100
C1523       C  0.67116605  0.03511408  0.06458913    -0.18200
H1524       H  0.51808673  0.98481588  0.04332096     0.10900
H1525       H  0.55958892  0.99131121  0.05606531     0.09200
H1526       H  0.61665457  0.54886287  0.02730835     0.10700
H1527       H  0.57494243  0.54324200  0.01485622     0.11800
H1528       H  0.61393858  0.02185550  0.06071818     0.11900
H1529       H  0.63840297  0.51916616  0.03459357     0.13800
H1530       H  0.66281905  0.48937881  0.03987229     0.10300
H1531       H  0.69714918  0.48301919  0.05318862     0.12400
H1532       H  0.69964611  0.04518699  0.08077294     0.09000
H1533       H  0.66391835  0.04986019  0.06772555     0.11700
C1534       C  0.78877067  0.50649757  0.09822409    -0.02900
C1535       C  0.81806634  0.52665785  0.09593715    -0.05500
C1536       C  0.83991402  0.52575677  0.10301257    -0.20600
C1537       C  0.83290036  0.50544894  0.11284469     0.25200
C1538       C  0.80361958  0.48550398  0.11527037    -0.18100
C1539       C  0.78178507  0.48600567  0.10800612    -0.08100
C1540       C  0.85655117  0.50523016  0.12025669    -0.18400
C1541       C  0.85403865  0.49843991  0.13281735    -0.23200
C1542       C  0.87802365  0.49923864  0.14038568     0.27200
C1543       C  0.88049226  0.50626401  0.15352802    -0.19900
C1544       C  0.90375362  0.00709828  0.16136841    -0.09600
C1545       C  0.92342125  0.99998980  0.15575115    -0.10100
C1546       C  0.92060705  0.99263741  0.14263172    -0.03100
C1547       C  0.89787902  0.49229372  0.13481842    -0.18200
H1548       H  0.82506597  0.04350661  0.08911158     0.10900
H1549       H  0.86233617  0.54128052  0.10096133     0.11000
H1550       H  0.79757690  0.46912061  0.12258493     0.10700
H1551       H  0.75942128  0.47004832  0.10988236     0.11800
H1552       H  0.87719466  0.51278119  0.11546077     0.11900
H1553       H  0.83442777  0.49389023  0.13792841     0.13800
H1554       H  0.86526192  0.51142713  0.15804007     0.10300
H1555       H  0.90525974  0.01254087  0.17149800     0.12400
H1556       H  0.93536653  0.98688051  0.13808623     0.09000
H1557       H  0.89610576  0.48604818  0.12479075     0.11700
C1558       C  0.54830612  0.98427131  0.15380486    -0.02900
C1559       C  0.56281469  0.96985529  0.15803190    -0.05500
C1560       C  0.58493721  0.97023970  0.15060670    -0.20600
C1561       C  0.59233703  0.98430221  0.13868545     0.25200
C1562       C  0.57707599  0.99779347  0.13424297    -0.18100
C1563       C  0.55539131  0.99791344  0.14177121    -0.08100
C1564       C  0.61754898  0.98677906  0.13153971    -0.18400
C1565       C  0.61864593  0.98681123  0.11861508    -0.23200
C1566       C  0.64479054  0.99160297  0.11153268     0.27200
C1567       C  0.64171103  0.97646483  0.10003295    -0.19900
C1568       C  0.66498688  0.48057663  0.09272481    -0.09600
C1569       C  0.69294164  0.50119075  0.09689570    -0.10100
C1570       C  0.69703503  0.01735089  0.10864110    -0.03100
C1571       C  0.67267545  0.01212704  0.11578415    -0.18200
H1572       H  0.55782897  0.95923934  0.16729005     0.10900
H1573       H  0.59654233  0.95984972  0.15423793     0.11000
H1574       H  0.58270736  0.00931588  0.12520775     0.10700
H1575       H  0.54455015  0.00918862  0.13828481     0.11800
H1576       H  0.63553549  0.98820495  0.13707839     0.11900
H1577       H  0.59959151  0.98241505  0.11305036     0.13800
H1578       H  0.62039295  0.96063266  0.09656998     0.10300
H1579       H  0.66202429  0.46799160  0.08407209     0.12400
H1580       H  0.71826494  0.03356186  0.11203097     0.09000
H1581       H  0.67561318  0.02459802  0.12447343     0.11700
C1582       C  0.92957687  0.42505294  0.20440455    -0.02900
C1583       C  0.92446723  0.39660403  0.20331886    -0.05500
C1584       C  0.90548590  0.37524083  0.21181163    -0.20600
C1585       C  0.89102024  0.38188176  0.22136572     0.25200
C1586       C  0.89663133  0.41048519  0.22257425    -0.18100
C1587       C  0.91564091  0.43177750  0.21417701    -0.08100
C1588       C  0.87055720  0.35886977  0.23011103    -0.18400
C1589       C  0.84734400  0.35911468  0.23510817    -0.23200
C1590       C  0.82628582  0.33633517  0.24373718     0.27200
C1591       C  0.79753032  0.33051892  0.24370925    -0.19900
C1592       C  0.77693557  0.30909067  0.25161963    -0.09600
C1593       C  0.78487396  0.29351954  0.25991391    -0.10100
C1594       C  0.81376985  0.29976797  0.26024092    -0.03100
C1595       C  0.83437267  0.32102810  0.25219833    -0.18200
H1596       H  0.93511129  0.39089106  0.19593155     0.10900
H1597       H  0.90173849  0.35340272  0.21079925     0.11000
H1598       H  0.88665746  0.41660476  0.23010681     0.10700
H1599       H  0.91938266  0.45357896  0.21534364     0.11800
H1600       H  0.87381943  0.34063413  0.23189780     0.11900
H1601       H  0.84250423  0.37578656  0.23217338     0.13800
H1602       H  0.79087242  0.34222662  0.23736871     0.10300
H1603       H  0.75469832  0.30448703  0.25123251     0.12400
H1604       H  0.82021715  0.28785164  0.26655216     0.09000
H1605       H  0.85656431  0.32559164  0.25269512     0.11700
C1606       C  0.69620761  0.19858182  0.25882422    -0.02900
C1607       C  0.70504920  0.18498486  0.24974645    -0.05500
C1608       C  0.68478042  0.16328466  0.24172088    -0.20600
C1609       C  0.65540042  0.15516777  0.24245098     0.25200
C1610       C  0.64648473  0.16866767  0.25160743    -0.18100
C1611       C  0.66678463  0.19026474  0.25972075    -0.08100
C1612       C  0.63456765  0.13193592  0.23380868    -0.18400
C1613       C  0.61023784  0.13079275  0.22942097    -0.23200
C1614       C  0.58989012  0.10762400  0.22059586     0.27200
C1615       C  0.57415573  0.11375705  0.21154327    -0.19900
C1616       C  0.55480610  0.09222860  0.20310842    -0.09600
C1617       C  0.55055080  0.06405432  0.20373950    -0.10100
C1618       C  0.56598160  0.05785017  0.21295308    -0.03100
C1619       C  0.58543203  0.07937198  0.22129461    -0.18200
H1620       H  0.72768951  0.19115199  0.24891731     0.10900
H1621       H  0.69210356  0.15304295  0.23480871     0.11000
H1622       H  0.62386239  0.16233846  0.25262503     0.10700
H1623       H  0.65960549  0.20062664  0.26663120     0.11800
H1624       H  0.64039138  0.11624290  0.23034658     0.11900
H1625       H  0.60589138  0.14815366  0.23175939     0.13800
H1626       H  0.57707409  0.13532914  0.21091584     0.10300
H1627       H  0.54306841  0.09757386  0.19616061     0.12400
H1628       H  0.56293231  0.03626100  0.21376917     0.09000
H1629       H  0.59654831  0.07369895  0.22842548     0.11700
C1630       C  0.69447391  0.19674394  0.28779339    -0.02900
C1631       C  0.68776870  0.16824452  0.28506852    -0.05500
C1632       C  0.66524745  0.14498239  0.29152814    -0.20600
C1633       C  0.64899381  0.14959308  0.30092934     0.25200
C1634       C  0.65638926  0.17825549  0.30398830    -0.18100
C1635       C  0.67887567  0.20154231  0.29746459    -0.08100
C1636       C  0.62512621  0.12392154  0.30744682    -0.18400
C1637       C  0.60270225  0.12403588  0.31345818    -0.23200
C1638       C  0.57829282  0.09817819  0.31966843     0.27200
C1639       C  0.56014486  0.10246702  0.32811595    -0.19900
C1640       C  0.53681276  0.07903175  0.33410374    -0.09600
C1641       C  0.53111996  0.05067930  0.33184128    -0.10100
C1642       C  0.54872164  0.04615019  0.32319063    -0.03100
C1643       C  0.57205970  0.06960140  0.31714877    -0.18200
H1644       H  0.69992307  0.16395529  0.27789427     0.10900
H1645       H  0.66035007  0.12322404  0.28908959     0.11000
H1646       H  0.64519002  0.18292453  0.31147420     0.10700
H1647       H  0.68387714  0.22335090  0.29985779     0.11800
H1648       H  0.62600323  0.10407013  0.30691266     0.11900
H1649       H  0.60190044  0.14395652  0.31389695     0.13800
H1650       H  0.56410722  0.12409432  0.33014633     0.10300
H1651       H  0.52323284  0.08304062  0.34057663     0.12400
H1652       H  0.54460217  0.02444506  0.32123464     0.09000
H1653       H  0.58474277  0.06500456  0.31043155     0.11700
C1654       C  0.93943925  0.45600350  0.32961639    -0.02900
C1655       C  0.92685324  0.46192073  0.31904788    -0.05500
C1656       C  0.90499192  0.43935352  0.31187315    -0.20600
C1657       C  0.89507294  0.41037536  0.31513284     0.25200
C1658       C  0.90849996  0.40446029  0.32543901    -0.18100
C1659       C  0.93054027  0.42706229  0.33254139    -0.08100
C1660       C  0.87113894  0.38723987  0.30737624    -0.18400
C1661       C  0.85463053  0.35967703  0.31130698    -0.23200
C1662       C  0.83076321  0.33690223  0.30342941     0.27200
C1663       C  0.82274840  0.30785965  0.30548685    -0.19900
C1664       C  0.80055921  0.28577339  0.29824533    -0.09600
C1665       C  0.78570345  0.29225235  0.28886450    -0.10100
C1666       C  0.79304016  0.32120664  0.28706475    -0.03100
C1667       C  0.81538492  0.34334038  0.29423789    -0.18200
H1668       H  0.93346952  0.48404254  0.31652917     0.10900
H1669       H  0.89538163  0.44458110  0.30388225     0.11000
H1670       H  0.90245141  0.38255639  0.32800598     0.10700
H1671       H  0.94051499  0.42194626  0.34041603     0.11800
H1672       H  0.86682890  0.39348634  0.29807708     0.11900
H1673       H  0.85886467  0.35306717  0.32052007     0.13800
H1674       H  0.83398375  0.30226915  0.31260554     0.10300
H1675       H  0.79520076  0.26359856  0.29985799     0.12400
H1676       H  0.78132386  0.32668253  0.28016149     0.09000
H1677       H  0.82008386  0.36530972  0.29271988     0.11700
C1678       C  0.79040703  0.00542248  0.95605662    -0.02900
C1679       C  0.81856621  0.02836929  0.95394804    -0.05500
C1680       C  0.84214846  0.02969626  0.96047101    -0.20600
C1681       C  0.83827833  0.00807215  0.96922196     0.25200
C1682       C  0.80884015  0.48354998  0.97139295    -0.18100
C1683       C  0.78617587  0.98422781  0.96510969    -0.08100
C1684       C  0.86456340  0.01046047  0.97557065    -0.18400
C1685       C  0.86469679  0.48704548  0.98125676    -0.23200
C1686       C  0.89167458  0.49018865  0.98714461     0.27200
C1687       C  0.88929374  0.47149452  0.99712635    -0.19900
C1688       C  0.91405235  0.47414797  0.00310442    -0.09600
C1689       C  0.94264260  0.99669780  0.99946193    -0.10100
C1690       C  0.94514611  0.01425270  0.98898135    -0.03100
C1691       C  0.92035397  0.01180337  0.98307139    -0.18200
H1692       H  0.82231000  0.04524647  0.94717211     0.10900
H1693       H  0.86363112  0.04756692  0.95852338     0.11000
H1694       H  0.80477104  0.46677672  0.97824332     0.10700
H1695       H  0.76353249  0.46436868  0.96674155     0.11800
H1696       H  0.88429858  0.03121290  0.97483743     0.11900
H1697       H  0.84531691  0.46603414  0.98197689     0.13800
H1698       H  0.86817097  0.45515291  0.00049413     0.10300
H1699       H  0.91159186  0.45989220  0.01098334     0.12400
H1700       H  0.96632832  0.03040314  0.98559460     0.09000
H1701       H  0.92318686  0.02560721  0.97497409     0.11700
C1702       C  0.53683181  0.99749272  0.99980342    -0.02900
C1703       C  0.54383508  0.47645122  0.00440646    -0.05500
C1704       C  0.56584247  0.47374900  0.99834259    -0.20600
C1705       C  0.58084879  0.99171273  0.98728742     0.25200
C1706       C  0.57217636  0.01099862  0.98260295    -0.18100
C1707       C  0.55037307  0.01382227  0.98880929    -0.08100
C1708       C  0.60466613  0.98884798  0.98124431    -0.18400
C1709       C  0.62722846  0.01096105  0.97523551    -0.23200
C1710       C  0.65165667  0.00929791  0.96904348     0.27200
C1711       C  0.67039137  0.03213394  0.96102118    -0.19900
C1712       C  0.69331067  0.03160421  0.95472532    -0.09600
C1713       C  0.69795400  0.00807555  0.95622321    -0.10100
C1714       C  0.67999480  0.98566747  0.96457885    -0.03100
C1715       C  0.65704517  0.98620377  0.97093902    -0.18200
H1716       H  0.53325934  0.46331179  0.01274679     0.10900
H1717       H  0.57190134  0.45860867  0.00213995     0.11000
H1718       H  0.58207233  0.02386244  0.97413031     0.10700
H1719       H  0.54451586  0.02925900  0.98520479     0.11800
H1720       H  0.60364445  0.46766381  0.98283683     0.11900
H1721       H  0.62793791  0.03163936  0.97471943     0.13800
H1722       H  0.66708876  0.05037609  0.95948492     0.10300
H1723       H  0.70724085  0.04943890  0.94853257     0.12400
H1724       H  0.68252680  0.46638220  0.96623295     0.09000
H1725       H  0.64335204  0.46775291  0.97772329     0.11700
C1726       C  0.93224785  0.01037839  0.87151191    -0.02900
C1727       C  0.93870450  0.03588904  0.87818147    -0.05500
C1728       C  0.91863936  0.03655635  0.88660462    -0.20600
C1729       C  0.89173148  0.01172892  0.88869839     0.25200
C1730       C  0.88418492  0.48477156  0.88227001    -0.18100
C1731       C  0.90441718  0.48433290  0.87376855    -0.08100
C1732       C  0.87080730  0.01429979  0.89730058    -0.18400
C1733       C  0.84628748  0.49030088  0.90283417    -0.23200
C1734       C  0.82573187  0.49408855  0.91119133     0.27200
C1735       C  0.81070963  0.47382974  0.92087906    -0.19900
C1736       C  0.79119930  0.47690887  0.92884869    -0.09600
C1737       C  0.78798400  0.00208636  0.92724740    -0.10100
C1738       C  0.80250664  0.02186857  0.91734307    -0.03100
C1739       C  0.82194669  0.01872633  0.90942047    -0.18200
H1740       H  0.95921978  0.05552437  0.87679409     0.10900
H1741       H  0.92416779  0.05667002  0.89148908     0.11000
H1742       H  0.86366287  0.46513158  0.88348949     0.10700
H1743       H  0.89916377  0.46433113  0.86886221     0.11800
H1744       H  0.87524313  0.03607936  0.89947163     0.11900
H1745       H  0.84307935  0.46864886  0.90174279     0.13800
H1746       H  0.81416544  0.45565539  0.92230796     0.10300
H1747       H  0.77962766  0.46084822  0.93616532     0.12400
H1748       H  0.79859563  0.03968049  0.91567116     0.09000
H1749       H  0.83208239  0.03396386  0.90167176     0.11700
C1750       C  0.55618660  0.51070236  0.87313585    -0.02900
C1751       C  0.54952104  0.98534539  0.87922093    -0.05500
C1752       C  0.56841587  0.98361297  0.88801772    -0.20600
C1753       C  0.59593796  0.00752458  0.89042894     0.25200
C1754       C  0.60403753  0.03347954  0.88377573    -0.18100
C1755       C  0.58421009  0.53420089  0.87503883    -0.08100
C1756       C  0.61527239  0.00371214  0.89967103    -0.18400
C1757       C  0.64184119  0.02476577  0.90332456    -0.23200
C1758       C  0.66144016  0.01996553  0.91195128     0.27200
C1759       C  0.69109955  0.04053592  0.91190897    -0.19900
C1760       C  0.71061097  0.03681063  0.91951464    -0.09600
C1761       C  0.70087359  0.01258873  0.92748338    -0.10100
C1762       C  0.67121105  0.99218688  0.92778932    -0.03100
C1763       C  0.65160867  0.99586271  0.92014882    -0.18200
H1764       H  0.52853750  0.96636524  0.87760401     0.10900
H1765       H  0.56147662  0.96333242  0.89292667     0.11000
H1766       H  0.62495069  0.05252436  0.88515788     0.10700
H1767       H  0.59165368  0.55388257  0.86957391     0.11800
H1768       H  0.60725154  0.98202898  0.90330636     0.11900
H1769       H  0.65050317  0.04634243  0.89949183     0.13800
H1770       H  0.69930792  0.05940560  0.90581229     0.10300
H1771       H  0.73341283  0.05288461  0.91919412     0.12400
H1772       H  0.66327895  0.97334273  0.93388271     0.09000
H1773       H  0.62890355  0.97989408  0.92083388     0.11700
C1774       C  0.00391957  0.08008655  0.81886588    -0.02900
C1775       C  0.02974937  0.10651137  0.81740742    -0.05500
C1776       C  0.03081470  0.12777511  0.80919800    -0.20600
C1777       C  0.00619464  0.12302355  0.80221807     0.25200
C1778       C  0.98028210  0.09661191  0.80378037    -0.18100
C1779       C  0.97923982  0.07540074  0.81195889    -0.08100
C1780       C  0.00798565  0.14661321  0.79396991    -0.18400
C1781       C  0.98955967  0.14216536  0.78416571    -0.23200
C1782       C  0.98994054  0.16569473  0.77633938     0.27200
C1783       C  0.96533466  0.15931386  0.76893710    -0.19900
C1784       C  0.96418419  0.18080639  0.76174318    -0.09600
C1785       C  0.98775638  0.20909940  0.76172985    -0.10100
C1786       C  0.01257317  0.21551563  0.76890201    -0.03100
C1787       C  0.01381080  0.19402834  0.77606227    -0.18200
H1788       H  0.54908658  0.11079959  0.82264530     0.10900
H1789       H  0.55096576  0.14802906  0.80829031     0.11000
H1790       H  0.96050875  0.09238088  0.79899876     0.10700
H1791       H  0.95890723  0.05538936  0.81298963     0.11800
H1792       H  0.02511591  0.16832061  0.79624323     0.11900
H1793       H  0.97275102  0.12028583  0.78187488     0.13800
H1794       H  0.94671272  0.13769623  0.76888305     0.10300
H1795       H  0.94478165  0.17546317  0.75630234     0.12400
H1796       H  0.53109475  0.23719631  0.76888142     0.09000
H1797       H  0.03358865  0.19984448  0.78122705     0.11700
C1798       C  0.98600336  0.30118599  0.76322109    -0.02900
C1799       C  0.96328130  0.30716937  0.76174868    -0.05500
C1800       C  0.96169226  0.32777595  0.76953486    -0.20600
C1801       C  0.98267684  0.34289861  0.77903854     0.25200
C1802       C  0.00532971  0.33669133  0.78065582    -0.18100
C1803       C  0.50693406  0.31603721  0.77281407    -0.08100
C1804       C  0.97928966  0.36395356  0.78732154    -0.18400
C1805       C  0.00123259  0.38576676  0.79384073    -0.23200
C1806       C  0.99795400  0.40723132  0.80187691     0.27200
C1807       C  0.52281863  0.43369979  0.80472889    -0.19900
C1808       C  0.52122415  0.45417323  0.81260034    -0.09600
C1809       C  0.99471909  0.44859810  0.81797539    -0.10100
C1810       C  0.96967463  0.42222555  0.81508852    -0.03100
C1811       C  0.97123756  0.40170056  0.80712855    -0.18200
H1812       H  0.94638650  0.29548537  0.75469566     0.10900
H1813       H  0.94383809  0.33181109  0.76816328     0.11000
H1814       H  0.52146816  0.34717522  0.78811403     0.10700
H1815       H  0.52447040  0.31155807  0.77426498     0.11800
H1816       H  0.95807231  0.36214741  0.78746081     0.11900
H1817       H  0.52295872  0.38906984  0.79280297     0.13800
H1818       H  0.54367002  0.43854519  0.80088781     0.10300
H1819       H  0.54095863  0.47424340  0.81465662     0.12400
H1820       H  0.94897352  0.41726659  0.81914320     0.09000
H1821       H  0.95164610  0.38132731  0.80544766     0.11700
C1822       C  0.97909688  0.20549972  0.73326208    -0.02900
C1823       C  0.95427571  0.18844291  0.72578844    -0.05500
C1824       C  0.95090052  0.16377669  0.71931805    -0.20600
C1825       C  0.97246358  0.15590958  0.71999981     0.25200
C1826       C  0.49746672  0.17326842  0.72739088    -0.18100
C1827       C  0.00080070  0.19785334  0.73384620    -0.08100
C1828       C  0.96786901  0.12904818  0.71331380    -0.18400
C1829       C  0.98992649  0.12531257  0.70932415    -0.23200
C1830       C  0.98635300  0.09889046  0.70264038     0.27200
C1831       C  0.50927890  0.10141349  0.69502528    -0.19900
C1832       C  0.50756011  0.07725969  0.68885096    -0.09600
C1833       C  0.98295581  0.04984325  0.69023292    -0.10100
C1834       C  0.96011519  0.04699028  0.69801978    -0.03100
C1835       C  0.96169762  0.07132222  0.70413353    -0.18200
H1836       H  0.93717166  0.19380767  0.72523618     0.10900
H1837       H  0.93134789  0.15075203  0.71377926     0.11000
H1838       H  0.51422895  0.16759573  0.72849922     0.10700
H1839       H  0.52019183  0.21069658  0.73950692     0.11800
H1840       H  0.94574340  0.11253193  0.71115050     0.11900
H1841       H  0.51195211  0.14307161  0.71043667     0.13800
H1842       H  0.52861615  0.12225675  0.69378754     0.10300
H1843       H  0.52549983  0.07995187  0.68294774     0.12400
H1844       H  0.94093708  0.02601928  0.69921559     0.09000
H1845       H  0.94389074  0.06837263  0.71017398     0.11700
C1846       C  0.97581477  0.45277594  0.69088366    -0.02900
C1847       C  0.95334009  0.42485176  0.68783340    -0.05500
C1848       C  0.95055745  0.40085480  0.69445625    -0.20600
C1849       C  0.97033883  0.40421216  0.70416324     0.25200
C1850       C  0.99241767  0.43232800  0.70746049    -0.18100
C1851       C  0.49505158  0.45638324  0.70088296    -0.08100
C1852       C  0.96690274  0.37794528  0.71072631    -0.18400
C1853       C  0.98931416  0.37630112  0.71584589    -0.23200
C1854       C  0.98682304  0.35006861  0.72214551     0.27200
C1855       C  0.01040223  0.35320500  0.72947308    -0.19900
C1856       C  0.00935111  0.32947295  0.73563445    -0.09600
C1857       C  0.98475164  0.30194054  0.73452306    -0.10100
C1858       C  0.96138440  0.29841963  0.72695914    -0.03100
C1859       C  0.96230588  0.32224320  0.72085371    -0.18200
H1860       H  0.93803648  0.42164089  0.68025674     0.10900
H1861       H  0.93317542  0.37951529  0.69183245     0.11000
H1862       H  0.50748638  0.43588047  0.71517591     0.10700
H1863       H  0.51240110  0.47778327  0.70344077     0.11800
H1864       H  0.94532011  0.35925920  0.71084463     0.11900
H1865       H  0.01082915  0.39514194  0.71540763     0.13800
H1866       H  0.02966750  0.37420882  0.73054929     0.10300
H1867       H  0.02771423  0.33259667  0.74135206     0.12400
H1868       H  0.94223159  0.27731073  0.72597538     0.09000
H1869       H  0.94389807  0.31850078  0.71506425     0.11700
C1870       C  0.00466023  0.30873554  0.59165059    -0.02900
C1871       C  0.52936810  0.32532761  0.58414702    -0.05500
C1872       C  0.53119874  0.34750263  0.57640397    -0.20600
C1873       C  0.50824582  0.35331530  0.57587930     0.25200
C1874       C  0.98384895  0.33725130  0.58373871    -0.18100
C1875       C  0.98200704  0.31500667  0.59145892    -0.08100
C1876       C  0.51058264  0.37611604  0.56697767    -0.18400
C1877       C  0.98735567  0.37660417  0.56214484    -0.23200
C1878       C  0.98909931  0.39859221  0.55290555     0.27200
C1879       C  0.96509683  0.40262988  0.55180742    -0.19900
C1880       C  0.96526637  0.42261446  0.54314889    -0.09600
C1881       C  0.98941976  0.43895009  0.53528235    -0.10100
C1882       C  0.51339261  0.43473809  0.53620880    -0.03100
C1883       C  0.51324243  0.41468543  0.54491582    -0.18200
H1884       H  0.54712619  0.32086884  0.58418757     0.10900
H1885       H  0.55033478  0.35971373  0.57056560     0.11000
H1886       H  0.96613219  0.34169594  0.58399459     0.10700
H1887       H  0.96267602  0.30236010  0.59711702     0.11800
H1888       H  0.53217179  0.39232690  0.56402351     0.11900
H1889       H  0.96580556  0.36021819  0.56505971     0.13800
H1890       H  0.94613844  0.39036730  0.55774311     0.10300
H1891       H  0.94641173  0.42529146  0.54264048     0.12400
H1892       H  0.53219614  0.44685153  0.53017773     0.09000
H1893       H  0.53181271  0.41156998  0.54514592     0.11700
C1894       C  0.98368541  0.06576373  0.53502185    -0.02900
C1895       C  0.95894408  0.06866114  0.53607805    -0.05500
C1896       C  0.95865192  0.08896807  0.54458212    -0.20600
C1897       C  0.98311265  0.10689243  0.55210804     0.25200
C1898       C  0.50771491  0.10365592  0.55115246    -0.18100
C1899       C  0.50800257  0.08341921  0.54266870    -0.08100
C1900       C  0.98190800  0.12803103  0.56110861    -0.18400
C1901       C  0.50566976  0.15190295  0.56547249    -0.23200
C1902       C  0.50442972  0.17331573  0.57424813     0.27200
C1903       C  0.52719836  0.20206789  0.57404027    -0.19900
C1904       C  0.52657556  0.22300205  0.58196838    -0.09600
C1905       C  0.50333862  0.21547653  0.59041088    -0.10100
C1906       C  0.98084431  0.18659171  0.59084573    -0.03100
C1907       C  0.98143434  0.16564552  0.58290579    -0.18200
H1908       H  0.93981532  0.05520889  0.53036241     0.10900
H1909       H  0.93931675  0.09080424  0.54523115     0.11000
H1910       H  0.52663112  0.11625031  0.55709434     0.10700
H1911       H  0.52727769  0.08145586  0.54217801     0.11800
H1912       H  0.96061394  0.12445426  0.56369455     0.11900
H1913       H  0.52686087  0.15707319  0.56190300     0.13800
H1914       H  0.54530916  0.20845201  0.56756551     0.10300
H1915       H  0.54423482  0.24511313  0.58151909     0.12400
H1916       H  0.96262154  0.18030938  0.59723551     0.09000
H1917       H  0.96397665  0.14352993  0.58363710     0.11700
C1918       C  0.99785175  0.21127707  0.61898285    -0.02900
C1919       C  0.52196461  0.20736570  0.61784580    -0.05500
C1920       C  0.52248849  0.18446047  0.62403653    -0.20600
C1921       C  0.49895811  0.16490092  0.63151162     0.25200
C1922       C  0.97499922  0.16920945  0.63290064    -0.18100
C1923       C  0.97451865  0.19224287  0.62669016    -0.08100
C1924       C  0.50093911  0.14109031  0.63798693    -0.18400
C1925       C  0.97782004  0.11654889  0.64213471    -0.23200
C1926       C  0.97991045  0.09293278  0.64875065     0.27200
C1927       C  0.95643507  0.07347005  0.65628800    -0.19900
C1928       C  0.95736229  0.05114592  0.66283486    -0.09600
C1929       C  0.98172034  0.04763603  0.66190244    -0.10100
C1930       C  0.50494800  0.06644462  0.65410627    -0.03100
C1931       C  0.50412327  0.08895875  0.64758669    -0.18200
H1932       H  0.54038960  0.22203229  0.61208682     0.10900
H1933       H  0.54132309  0.18189434  0.62290243     0.11000
H1934       H  0.95679730  0.15524215  0.63889356     0.10700
H1935       H  0.95578492  0.19499217  0.62775149     0.11800
H1936       H  0.52247920  0.14404838  0.63921528     0.11900
H1937       H  0.95628155  0.11360388  0.64090575     0.13800
H1938       H  0.93742665  0.07579275  0.65726598     0.10300
H1939       H  0.93913153  0.03668423  0.66874245     0.12400
H1940       H  0.52389129  0.06398165  0.65325216     0.09000
H1941       H  0.52231626  0.10283857  0.64157121     0.11700
C1942       C  0.99264363  0.30232376  0.61998269    -0.02900
C1943       C  0.96676219  0.29457262  0.62654162    -0.05500
C1944       C  0.96274778  0.31565693  0.63280160    -0.20600
C1945       C  0.98470955  0.34482906  0.63285544     0.25200
C1946       C  0.51089400  0.35245187  0.62648917    -0.18100
C1947       C  0.51481057  0.33139065  0.62016548    -0.08100
C1948       C  0.97912756  0.36683542  0.63912024    -0.18400
C1949       C  0.50031331  0.39203214  0.64400515    -0.23200
C1950       C  0.49500987  0.41400117  0.65046215     0.27200
C1951       C  0.51494433  0.43234233  0.65974775    -0.19900
C1952       C  0.51110107  0.45352352  0.66595754    -0.09600
C1953       C  0.98743751  0.45715846  0.66288379    -0.10100
C1954       C  0.96779767  0.43938526  0.65337538    -0.03100
C1955       C  0.97141874  0.41785417  0.64725968    -0.18200
H1956       H  0.94932490  0.27231384  0.62648240     0.10900
H1957       H  0.94233639  0.30918429  0.63756746     0.11000
H1958       H  0.52807893  0.37474481  0.62603009     0.10700
H1959       H  0.53498245  0.33786438  0.61518159     0.11800
H1960       H  0.95670291  0.36140664  0.64027553     0.11900
H1961       H  0.52245409  0.39616893  0.64396375     0.13800
H1962       H  0.53344011  0.43007159  0.66230806     0.10300
H1963       H  0.52662631  0.46713955  0.67319552     0.12400
H1964       H  0.94945791  0.44192472  0.65082973     0.09000
H1965       H  0.95604731  0.40464314  0.63990738     0.11700
C1966       C  0.55150564  0.05714475  0.48159970    -0.02900
C1967       C  0.54202926  0.05886874  0.46919001    -0.05500
C1968       C  0.56175901  0.07670560  0.45993383    -0.20600
C1969       C  0.59115161  0.09377233  0.46302845     0.25200
C1970       C  0.60078845  0.09191732  0.47539975    -0.18100
C1971       C  0.58112226  0.07346977  0.48458240    -0.08100
C1972       C  0.61129315  0.11364883  0.45325631    -0.18400
C1973       C  0.63112301  0.14097304  0.45627670    -0.23200
C1974       C  0.64996014  0.16221296  0.44657995     0.27200
C1975       C  0.65715258  0.19113422  0.44812766    -0.19900
C1976       C  0.67625203  0.21216443  0.43965465    -0.09600
C1977       C  0.68919158  0.20483831  0.42963897    -0.10100
C1978       C  0.68174942  0.17575892  0.42797229    -0.03100
C1979       C  0.66202343  0.15452172  0.43630410    -0.18200
H1980       H  0.51931565  0.04632398  0.46662692     0.10900
H1981       H  0.55395605  0.07778252  0.45044156     0.11000
H1982       H  0.62350378  0.10462819  0.47792788     0.10700
H1983       H  0.58893671  0.07245107  0.49407624     0.11800
H1984       H  0.60792060  0.10665002  0.44325911     0.11900
H1985       H  0.63209769  0.14868328  0.46606963     0.13800
H1986       H  0.64809620  0.19749874  0.45598302     0.10300
H1987       H  0.68159796  0.23441350  0.44113517     0.12400
H1988       H  0.69194161  0.16964201  0.42053079     0.09000
H1989       H  0.65720801  0.13238808  0.43505382     0.11700
C1990       C  0.92109630  0.44682534  0.48174900    -0.02900
C1991       C  0.92977549  0.44419704  0.46928818    -0.05500
C1992       C  0.90930969  0.42640285  0.46015068    -0.20600
C1993       C  0.87997148  0.41022841  0.46343579     0.25200
C1994       C  0.87115211  0.41314215  0.47584243    -0.18100
C1995       C  0.89155777  0.43158515  0.48488910    -0.08100
C1996       C  0.85909172  0.38993638  0.45386661    -0.18400
C1997       C  0.83876753  0.36306830  0.45716577    -0.23200
C1998       C  0.81960954  0.34111686  0.44765034     0.27200
C1999       C  0.81155694  0.31213257  0.44972267    -0.19900
C2000       C  0.79267299  0.29060838  0.44125236    -0.09600
C2001       C  0.78091684  0.29755348  0.43067488    -0.10100
C2002       C  0.78896597  0.32662475  0.42856916    -0.03100
C2003       C  0.80840000  0.34830655  0.43692373    -0.18200
H2004       H  0.95241890  0.45599152  0.46660372     0.10900
H2005       H  0.91649297  0.42455937  0.45061976     0.11000
H2006       H  0.84851687  0.40119215  0.47851976     0.10700
H2007       H  0.88436388  0.43338326  0.49442092     0.11800
H2008       H  0.86243736  0.39605192  0.44379209     0.11900
H2009       H  0.83776742  0.35614195  0.46706330     0.13800
H2010       H  0.81993576  0.30613663  0.45793152     0.10300
H2011       H  0.78683085  0.26836809  0.44307242     0.12400
H2012       H  0.77966615  0.33245403  0.42066547     0.09000
H2013       H  0.81382744  0.37047034  0.43525406     0.11700
C2014       C  0.69054009  0.20447932  0.40057119    -0.02900
C2015       C  0.69730604  0.18888991  0.39165533    -0.05500
C2016       C  0.67533928  0.16595486  0.38467482    -0.20600
C2017       C  0.64617263  0.15809521  0.38647100     0.25200
C2018       C  0.63955606  0.17444068  0.39510945    -0.18100
C2019       C  0.66153734  0.19734802  0.40208657    -0.08100
C2020       C  0.62353771  0.13323336  0.37895285    -0.18400
C2021       C  0.59534358  0.11853343  0.38229726    -0.23200
C2022       C  0.57266223  0.09399166  0.37469312     0.27200
C2023       C  0.54375925  0.08749001  0.37593399    -0.19900
C2024       C  0.52172831  0.06491489  0.36884029    -0.09600
C2025       C  0.52819584  0.04834865  0.36038478    -0.10100
C2026       C  0.55688681  0.05408499  0.35944073    -0.03100
C2027       C  0.57895253  0.07668418  0.36652318    -0.18200
H2028       H  0.71956567  0.19412500  0.39028527     0.10900
H2029       H  0.68112254  0.15402768  0.37797914     0.11000
H2030       H  0.61759037  0.17001929  0.39642929     0.10700
H2031       H  0.65591573  0.20954059  0.40869753     0.11800
H2032       H  0.63064811  0.12677338  0.37040965     0.11900
H2033       H  0.58811846  0.12492139  0.39081443     0.13800
H2034       H  0.53827689  0.10026359  0.38225413     0.10300
H2035       H  0.49971157  0.06077792  0.36972384     0.12400
H2036       H  0.56219515  0.04114693  0.35314324     0.09000
H2037       H  0.60072563  0.08023006  0.36566020     0.11700
C2038       C  0.93327182  0.45777420  0.35827216    -0.02900
C2039       C  0.90504182  0.45094417  0.35482369    -0.05500
C2040       C  0.88111126  0.42897740  0.36119969    -0.20600
C2041       C  0.88486113  0.41341494  0.37115304     0.25200
C2042       C  0.91321781  0.42102541  0.37490733    -0.18100
C2043       C  0.93712321  0.44292051  0.36850085    -0.08100
C2044       C  0.85874558  0.38979628  0.37747159    -0.18400
C2045       C  0.85864022  0.36742650  0.38352718    -0.23200
C2046       C  0.83262904  0.34320879  0.38964214     0.27200
C2047       C  0.83675011  0.32595352  0.39860858    -0.19900
C2048       C  0.81312785  0.30300825  0.40466412    -0.09600
C2049       C  0.78481630  0.29681582  0.40187719    -0.10100
C2050       C  0.78045745  0.31333596  0.39262217    -0.03100
C2051       C  0.80410690  0.33634665  0.38655196    -0.18200
H2052       H  0.90153439  0.46250626  0.34713784     0.10900
H2053       H  0.85955285  0.42386094  0.35823133     0.11000
H2054       H  0.91715697  0.41041190  0.38285061     0.10700
H2055       H  0.95870417  0.44806238  0.37143361     0.11800
H2056       H  0.83890109  0.39070891  0.37673243     0.11900
H2057       H  0.87855758  0.36659259  0.38412396     0.13800
H2058       H  0.85839596  0.33044961  0.40105410     0.10300
H2059       H  0.81693553  0.29025931  0.41165435     0.12400
H2060       H  0.75873721  0.30873977  0.39027540     0.09000
H2061       H  0.79978722  0.34834965  0.37939388     0.11700
C2062       C  0.76019342  0.77390105  0.40897987     0.02600
C2063       C  0.75886447  0.77410873  0.42256818     0.02600
C2064       C  0.73543815  0.75124845  0.42880920    -0.17900
C2065       C  0.71310194  0.72820880  0.42198584     0.02600
C2066       C  0.71419701  0.72798992  0.40836947     0.02600
C2067       C  0.73779034  0.75090688  0.40204610    -0.17900
H2068       H  0.73877736  0.75081738  0.39162912     0.04600
H2069       H  0.73459782  0.75138762  0.43923144     0.04600
C2070       C  0.50192302  0.78395483  0.59905491     0.02600
C2071       C  0.49551044  0.78029149  0.61236958     0.02600
C2072       C  0.49295018  0.75570039  0.61856664    -0.17900
C2073       C  0.49690624  0.73497920  0.61178779     0.02600
C2074       C  0.50208328  0.73818065  0.59837436     0.02600
C2075       C  0.50488871  0.76279367  0.59226534    -0.17900
H2076       H  0.50864890  0.76515965  0.58197411     0.04600
H2077       H  0.48900485  0.75327830  0.62883853     0.04600
O2078       O  0.53732034  0.52866204  0.50080433    -0.57500
C2079       C  0.98913252  0.96024186  0.52628581     0.75100
O2080       O  0.96344548  0.52785032  0.51902127    -0.58600
C2081       C  0.53048775  0.53838654  0.49111146     0.75100
C2082       C  0.94273078  0.96531810  0.49149129     0.77500
Cd2083     Cd  0.98718710  0.50208218  0.50937841     1.37500
O2084       O  0.51038545  0.97606590  0.51910459    -0.57500
O2085       O  0.96852840  0.97024416  0.49076844    -0.56300
C2086       C  0.98483270  0.54447967  0.52604918     0.77500
O2087       O  0.93687945  0.97692457  0.50083476    -0.58700
O2088       O  0.96742772  0.96380202  0.52550763    -0.57100
O2089       O  0.50417600  0.53161267  0.49012866    -0.57100
O2090       O  0.50693183  0.54157548  0.52518262    -0.56300
C2091       C  0.98243841  0.77642259  0.74154813     0.02600
C2092       C  0.98525671  0.77753320  0.75512582     0.02600
C2093       C  0.98689207  0.75517842  0.76144016    -0.17900
C2094       C  0.98477223  0.73135044  0.75465334     0.02600
C2095       C  0.98071327  0.72957118  0.74113939     0.02600
C2096       C  0.97956759  0.75220118  0.73475547    -0.17900
H2097       H  0.97737698  0.75141036  0.72437223     0.04600
H2098       H  0.98888067  0.75580270  0.77183231     0.04600
O2099       O  0.52228091  0.56079043  0.83500922    -0.57500
C2100       C  0.53739500  0.01241410  0.86314176     0.75100
O2101       O  0.94812065  0.98883823  0.85524092    -0.58600
C2102       C  0.00112038  0.55705687  0.82802304     0.75100
C2103       C  0.99450387  0.97016489  0.82680236     0.77500
Cd2104     Cd  0.99669786  0.01262860  0.84483975     1.37500
O2105       O  0.54304516  0.53407149  0.85671850    -0.57500
O2106       O  0.51713377  0.99413697  0.82897224    -0.56300
C2107       C  0.95255641  0.50963674  0.86251726     0.77500
O2108       O  0.97188951  0.96564503  0.83282903    -0.58700
O2109       O  0.01264822  0.99069374  0.86109353    -0.57100
O2110       O  0.97818237  0.53282113  0.82895707    -0.57100
O2111       O  0.97748161  0.53164524  0.86146329    -0.56300
C2112       C  0.71995990  0.50527788  0.94899934     0.02600
C2113       C  0.72085361  0.50733338  0.93540859     0.02600
C2114       C  0.74274573  0.50563102  0.92868207    -0.17900
C2115       C  0.76435555  0.50279383  0.93509022     0.02600
C2116       C  0.76436324  0.50203709  0.94870417     0.02600
C2117       C  0.74166641  0.50244917  0.95548049    -0.17900
H2118       H  0.74166577  0.50198718  0.96590505     0.04600
H2119       H  0.74275584  0.50623016  0.91825417     0.04600
C2120       C  0.76213698  0.76875169  0.28084682     0.02600
C2121       C  0.76218801  0.76952837  0.26724164     0.02600
C2122       C  0.74023293  0.74638814  0.26035747    -0.17900
C2123       C  0.71800295  0.72242460  0.26660597     0.02600
C2124       C  0.71725899  0.72168830  0.28022942     0.02600
C2125       C  0.73945897  0.74491053  0.28715980    -0.17900
H2126       H  0.73920133  0.74432820  0.29758375     0.04600
H2127       H  0.74055432  0.74696045  0.24992315     0.04600
C2128       C  0.95879905  0.98030527  0.35116369     0.02600
C2129       C  0.96136926  0.97987513  0.33758298     0.02600
C2130       C  0.98549941  0.50307366  0.33167014    -0.17900
C2131       C  0.50719233  0.52610572  0.33883662     0.02600
C2132       C  0.50517173  0.52568584  0.35241844     0.02600
C2133       C  0.98091565  0.50312026  0.35843618    -0.17900
H2134       H  0.97919958  0.50325245  0.36882648     0.04600
H2135       H  0.98728637  0.50315345  0.32128174     0.04600
O2136       O  0.96170079  0.94268964  0.18607552    -0.57500
C2137       C  0.52634467  0.48671516  0.16193281     0.75100
O2138       O  0.95285527  0.51131769  0.17412879    -0.58600
C2139       C  0.95022819  0.94766470  0.19570496     0.75100
C2140       C  0.52917055  0.54116391  0.19477860     0.77500
Cd2141     Cd  0.98758368  0.49417584  0.17881271     1.37500
O2142       O  0.51613164  0.97065315  0.17190300    -0.57500
O2143       O  0.52407782  0.51545651  0.19582466    -0.56300
C2144       C  0.94508643  0.49888459  0.16327751     0.77500
O2145       O  0.51519062  0.54564800  0.18609540    -0.58700
O2146       O  0.51902221  0.50562500  0.15994291    -0.57100
O2147       O  0.95648485  0.97361387  0.19741515    -0.57100
O2148       O  0.95838647  0.98523204  0.15981425    -0.56300
C2149       C  0.72263810  0.00984061  0.07639019     0.02600
C2150       C  0.72015168  0.00653325  0.08997520     0.02600
C2151       C  0.74251919  0.00600533  0.09694767    -0.17900
C2152       C  0.76646417  0.00708471  0.09077696     0.02600
C2153       C  0.76778956  0.00811116  0.07719151     0.02600
C2154       C  0.74643879  0.01036343  0.07022746    -0.17900
H2155       H  0.74828638  0.01222291  0.05984918     0.04600
H2156       H  0.74102922  0.00418464  0.10733384     0.04600
C2157       C  0.51426519  0.50107164  0.00693287     0.02600
C2158       C  0.51710817  0.50790145  0.02027138     0.02600
C2159       C  0.99507455  0.51051191  0.02649663    -0.17900
C2160       C  0.97067892  0.50696269  0.01978577     0.02600
C2161       C  0.96788921  0.50041458  0.00648595     0.02600
C2162       C  0.98988522  0.49788685  0.00018248    -0.17900
H2163       H  0.98754801  0.49247294  0.99002349     0.04600
H2164       H  0.99721625  0.51605517  0.03664127     0.04600
C2165       C  0.98404556  0.97954710  0.66996741     0.02600
C2166       C  0.98011326  0.97826360  0.68347437     0.02600
C2167       C  0.97862673  0.50086396  0.68984702    -0.17900
C2168       C  0.98066066  0.52449142  0.68304263     0.02600
C2169       C  0.98255439  0.52475343  0.66946065     0.02600
C2170       C  0.98420189  0.50234281  0.66303532    -0.17900
H2171       H  0.48637977  0.50297990  0.65265753     0.04600
H2172       H  0.97658850  0.50035196  0.70022964     0.04600
C2173       C  0.79043594  0.00540880  0.07004386    -0.02900
C2174       C  0.79399984  0.98131444  0.07193316    -0.05500
C2175       C  0.81617466  0.97932838  0.06567710    -0.20600
C2176       C  0.83381585  0.50072576  0.05676599     0.25200
C2177       C  0.82965991  0.52450465  0.05457605    -0.18100
C2178       C  0.80884980  0.02707963  0.06152082    -0.08100
C2179       C  0.85721749  0.49756954  0.05048047    -0.18400
C2180       C  0.88104625  0.51968265  0.04523183    -0.23200
C2181       C  0.90423938  0.51614147  0.03905718     0.27200
C2182       C  0.92057099  0.53520290  0.02920394    -0.19900
C2183       C  0.94248548  0.53253414  0.02307854    -0.09600
C2184       C  0.94865246  0.51090591  0.02679731    -0.10100
C2185       C  0.93304977  0.49239433  0.03692284    -0.03100
C2186       C  0.91093791  0.49489566  0.04299338    -0.18200
H2187       H  0.77974265  0.96416693  0.07835816     0.10900
H2188       H  0.81863213  0.96063995  0.06741421     0.11000
H2189       H  0.84306019  0.54141453  0.04791815     0.10700
H2190       H  0.80628363  0.04573148  0.05987795     0.11800
H2191       H  0.85479052  0.47610580  0.05037761     0.11900
H2192       H  0.88370060  0.54119713  0.04513111     0.13800
H2193       H  0.91604260  0.55192679  0.02610328     0.10300
H2194       H  0.95448850  0.54716544  0.01534566     0.12400
H2195       H  0.93945307  0.97697320  0.04030970     0.09000
H2196       H  0.89944992  0.48044402  0.05083905     0.11700
C2197       C  0.54275047  0.51265900  0.02798329    -0.02900
C2198       C  0.53872494  0.49849127  0.03979928    -0.05500
C2199       C  0.56249268  0.50237262  0.04705766    -0.20600
C2200       C  0.59075374  0.51994944  0.04253884     0.25200
C2201       C  0.59609762  0.03472539  0.03081824    -0.18100
C2202       C  0.57237540  0.03171442  0.02369913    -0.08100
C2203       C  0.61527918  0.52250789  0.05028377    -0.18400
C2204       C  0.63785495  0.52164153  0.04495884    -0.23200
C2205       C  0.65989447  0.51956033  0.05289214     0.27200
C2206       C  0.67126017  0.00114628  0.04908701    -0.19900
C2207       C  0.69102362  0.99781596  0.05672659    -0.09600
C2208       C  0.70123723  0.01320891  0.06837135    -0.10100
C2209       C  0.69048531  0.53204032  0.07194411    -0.03100
C2210       C  0.67024320  0.53502829  0.06449573    -0.18200
H2211       H  0.51710810  0.48405887  0.04333701     0.10900
H2212       H  0.55878263  0.49099634  0.05608391     0.09200
H2213       H  0.61780327  0.04878729  0.02728454     0.10700
H2214       H  0.57626818  0.04366242  0.01483617     0.11800
H2215       H  0.61303796  0.52164188  0.06068797     0.11900
H2216       H  0.63915241  0.01857089  0.03471079     0.13800
H2217       H  0.66359487  0.98888218  0.04020944     0.10300
H2218       H  0.69808863  0.98291911  0.05359256     0.12400
H2219       H  0.69857790  0.54467671  0.08069782     0.09000
H2220       H  0.66297854  0.54970329  0.06772096     0.11700
C2221       C  0.78970873  0.00704549  0.09872370    -0.02900
C2222       C  0.81901834  0.02715426  0.09644483    -0.05500
C2223       C  0.84081746  0.02625634  0.10355756    -0.20600
C2224       C  0.83374403  0.00600647  0.11341962     0.25200
C2225       C  0.80444236  0.98615838  0.11586168    -0.18100
C2226       C  0.78265231  0.98665755  0.10855990    -0.08100
C2227       C  0.85737145  0.00570701  0.12081306    -0.18400
C2228       C  0.85485444  0.99876854  0.13335368    -0.23200
C2229       C  0.87885235  0.99947454  0.14086788     0.27200
C2230       C  0.88143981  0.00648189  0.15401254    -0.19900
C2231       C  0.90276881  0.50693820  0.16093983    -0.09600
C2232       C  0.92252119  0.49986817  0.15538326    -0.10100
C2233       C  0.91981933  0.49249178  0.14226762    -0.03100
C2234       C  0.89862334  0.99248969  0.13523884    -0.18200
H2235       H  0.82406276  0.54306409  0.08863319     0.10900
H2236       H  0.86325442  0.04171617  0.10149851     0.11000
H2237       H  0.79834450  0.96982599  0.12320442     0.10700
H2238       H  0.76026997  0.97076381  0.11044203     0.11800
H2239       H  0.87801562  0.01328914  0.11601256     0.11900
H2240       H  0.83526071  0.99417923  0.13848935     0.13800
H2241       H  0.86627724  0.01167963  0.15856876     0.10300
H2242       H  0.90418106  0.51239475  0.17106470     0.12400
H2243       H  0.93464394  0.48676460  0.13776674     0.09000
H2244       H  0.89675125  0.98625775  0.12520580     0.11700
C2245       C  0.54734429  0.48414019  0.15351460    -0.02900
C2246       C  0.56156470  0.46939240  0.15768659    -0.05500
C2247       C  0.58364105  0.46965812  0.15026391    -0.20600
C2248       C  0.59129033  0.48393862  0.13839456     0.25200
C2249       C  0.57633238  0.49778442  0.13400651    -0.18100
C2250       C  0.55469303  0.49801667  0.14153302    -0.08100
C2251       C  0.61644980  0.48625352  0.13125113    -0.18400
C2252       C  0.61760252  0.48635936  0.11832371    -0.23200
C2253       C  0.64371739  0.49100443  0.11124468     0.27200
C2254       C  0.64059172  0.47594103  0.09971401    -0.19900
C2255       C  0.66612430  0.98118257  0.09304562    -0.09600
C2256       C  0.69403981  0.00194934  0.09718617    -0.10100
C2257       C  0.69597896  0.51649440  0.10838597    -0.03100
C2258       C  0.67163868  0.51135436  0.11552676    -0.18200
H2259       H  0.55638120  0.45858254  0.16690042     0.10900
H2260       H  0.59500989  0.45899245  0.15385594     0.11000
H2261       H  0.58216575  0.50947814  0.12501479     0.10700
H2262       H  0.54409565  0.50956027  0.13808615     0.11800
H2263       H  0.63434388  0.48748599  0.13679494     0.11900
H2264       H  0.59861609  0.48216000  0.11275312     0.13800
H2265       H  0.61924897  0.46024785  0.09622180     0.10300
H2266       H  0.66320750  0.96850821  0.08442801     0.12400
H2267       H  0.71723095  0.53260206  0.11179744     0.09000
H2268       H  0.67462559  0.52377686  0.12423664     0.11700
C2269       C  0.93047929  0.92473298  0.20455274    -0.02900
C2270       C  0.92474598  0.89611257  0.20321563    -0.05500
C2271       C  0.90565196  0.87469215  0.21165908    -0.20600
C2272       C  0.89171168  0.88147810  0.22140915     0.25200
C2273       C  0.89802406  0.91025053  0.22289018    -0.18100
C2274       C  0.91713565  0.93158699  0.21454482    -0.08100
C2275       C  0.87097720  0.85844436  0.23005994    -0.18400
C2276       C  0.84801124  0.85909441  0.23510152    -0.23200
C2277       C  0.82672412  0.83636956  0.24366640     0.27200
C2278       C  0.79801132  0.83066776  0.24350913    -0.19900
C2279       C  0.77722075  0.80926210  0.25136281    -0.09600
C2280       C  0.78493222  0.79362825  0.25973035    -0.10100
C2281       C  0.81379670  0.79979690  0.26019232    -0.03100
C2282       C  0.83458772  0.82101746  0.25220164    -0.18200
H2283       H  0.93494294  0.89030197  0.19565676     0.10900
H2284       H  0.90136317  0.85270804  0.21044301     0.11000
H2285       H  0.88846586  0.91643710  0.23058271     0.10700
H2286       H  0.92138684  0.95351789  0.21591395     0.11800
H2287       H  0.87380908  0.83990860  0.23174488     0.11900
H2288       H  0.84356509  0.87608546  0.23225259     0.13800
H2289       H  0.79154306  0.84243307  0.23710774     0.10300
H2290       H  0.75501385  0.80472605  0.25087518     0.12400
H2291       H  0.82007330  0.78784068  0.26656488     0.09000
H2292       H  0.85675258  0.82551918  0.25278648     0.11700
C2293       C  0.69612344  0.69877763  0.25845927    -0.02900
C2294       C  0.70502613  0.68508976  0.24945520    -0.05500
C2295       C  0.68482012  0.66337929  0.24140712    -0.20600
C2296       C  0.65544817  0.65535137  0.24203774     0.25200
C2297       C  0.64647661  0.66892017  0.25113419    -0.18100
C2298       C  0.66670560  0.69052010  0.25926766    -0.08100
C2299       C  0.63466012  0.63216147  0.23335513    -0.18400
C2300       C  0.61042495  0.63113969  0.22890269    -0.23200
C2301       C  0.58997382  0.60797275  0.22009493     0.27200
C2302       C  0.57414977  0.61413023  0.21109764    -0.19900
C2303       C  0.55458087  0.59258298  0.20272541    -0.09600
C2304       C  0.55018769  0.56435761  0.20336270    -0.10100
C2305       C  0.56573004  0.55813831  0.21251376    -0.03100
C2306       C  0.58540250  0.57967886  0.22079068    -0.18200
H2307       H  0.72766161  0.69119297  0.24870142     0.10900
H2308       H  0.69218892  0.65307395  0.23455079     0.11000
H2309       H  0.62385738  0.66265094  0.25208761     0.10700
H2310       H  0.65947381  0.70093129  0.26612694     0.11800
H2311       H  0.64041803  0.61638895  0.22993984     0.11900
H2312       H  0.60618139  0.64858330  0.23120753     0.13800
H2313       H  0.57714184  0.63573138  0.21047377     0.10300
H2314       H  0.54277517  0.59795199  0.19582488     0.12400
H2315       H  0.56259466  0.53651697  0.21333245     0.09000
H2316       H  0.59657551  0.57397581  0.22787920     0.11700
C2317       C  0.69399832  0.69690179  0.28741602    -0.02900
C2318       C  0.68730641  0.66841013  0.28469001    -0.05500
C2319       C  0.66466127  0.64512575  0.29108195    -0.20600
C2320       C  0.64829508  0.64969028  0.30044523     0.25200
C2321       C  0.65568312  0.67836261  0.30350326    -0.18100
C2322       C  0.67826539  0.70166887  0.29702901    -0.08100
C2323       C  0.62436932  0.62393752  0.30691824    -0.18400
C2324       C  0.60247662  0.62418380  0.31337120    -0.23200
C2325       C  0.57817384  0.59830871  0.31963710     0.27200
C2326       C  0.56040889  0.60265730  0.32829837    -0.19900
C2327       C  0.53716766  0.57925420  0.33434611    -0.09600
C2328       C  0.53121160  0.55085614  0.33196244    -0.10100
C2329       C  0.54846220  0.54627187  0.32312222    -0.03100
C2330       C  0.57168282  0.56969179  0.31700231    -0.18200
H2331       H  0.69956481  0.66414047  0.27756313     0.10900
H2332       H  0.65979714  0.62338178  0.28863494     0.11000
H2333       H  0.64443088  0.68307104  0.31094446     0.10700
H2334       H  0.68324477  0.72347261  0.29941886     0.11800
H2335       H  0.62483971  0.60392090  0.30603383     0.11900
H2336       H  0.60203937  0.64424642  0.31417554     0.13800
H2337       H  0.56456933  0.62431080  0.33043453     0.10300
H2338       H  0.52384012  0.58333061  0.34094576     0.12400
H2339       H  0.54414295  0.52453854  0.32106347     0.09000
H2340       H  0.58406695  0.56502228  0.31014620     0.11700
C2341       C  0.93934452  0.95578584  0.32951052    -0.02900
C2342       C  0.92692225  0.96170151  0.31887825    -0.05500
C2343       C  0.90508947  0.93913987  0.31168951    -0.20600
C2344       C  0.89501834  0.91015745  0.31499581     0.25200
C2345       C  0.90825722  0.90423244  0.32537718    -0.18100
C2346       C  0.93028084  0.92683078  0.33249152    -0.08100
C2347       C  0.87110409  0.88704687  0.30721452    -0.18400
C2348       C  0.85456849  0.85945532  0.31110697    -0.23200
C2349       C  0.83063550  0.83676647  0.30322075     0.27200
C2350       C  0.82250054  0.80768214  0.30524852    -0.19900
C2351       C  0.80021690  0.78567396  0.29801306    -0.09600
C2352       C  0.78539633  0.79227531  0.28866368    -0.10100
C2353       C  0.79285655  0.82127066  0.28689023    -0.03100
C2354       C  0.81528439  0.84332494  0.29406215    -0.18200
H2355       H  0.93365228  0.98382488  0.31631311     0.10900
H2356       H  0.89562333  0.94438160  0.30364609     0.11000
H2357       H  0.90208264  0.88232598  0.32799676     0.10700
H2358       H  0.94012660  0.92169708  0.34041309     0.11800
H2359       H  0.86681441  0.89334857  0.29792442     0.11900
H2360       H  0.85879056  0.85275930  0.32029996     0.13800
H2361       H  0.83371071  0.80199664  0.31234050     0.10300
H2362       H  0.79477123  0.76346494  0.29959800     0.12400
H2363       H  0.78119071  0.82683896  0.27999891     0.09000
H2364       H  0.82007339  0.86532908  0.29256623     0.11700
C2365       C  0.78916393  0.50357240  0.95596657    -0.02900
C2366       C  0.81723885  0.52670954  0.95391024    -0.05500
C2367       C  0.84088962  0.52816110  0.96041912    -0.20600
C2368       C  0.83716477  0.50643652  0.96907491     0.25200
C2369       C  0.80986612  0.98542953  0.97161520    -0.18100
C2370       C  0.78507444  0.48224107  0.96491527    -0.08100
C2371       C  0.86347706  0.50898879  0.97544648    -0.18400
C2372       C  0.86549767  0.98872792  0.98174641    -0.23200
C2373       C  0.89248918  0.99168357  0.98755941     0.27200
C2374       C  0.89011636  0.97326816  0.99767043    -0.19900
C2375       C  0.91488792  0.97573109  0.00356218    -0.09600
C2376       C  0.94178140  0.49552033  0.99918741    -0.10100
C2377       C  0.94432952  0.51339705  0.98883462    -0.03100
C2378       C  0.91954324  0.51080458  0.98285890    -0.18200
H2379       H  0.82085057  0.54367604  0.94721115     0.10900
H2380       H  0.86230809  0.54621112  0.95854060     0.11000
H2381       H  0.80565881  0.96871932  0.97852031     0.10700
H2382       H  0.76457943  0.96649396  0.96697629     0.11800
H2383       H  0.88297752  0.53001048  0.97503222     0.11900
H2384       H  0.84588448  0.96802614  0.98281944     0.13800
H2385       H  0.86900020  0.95727607  0.00119568     0.10300
H2386       H  0.91242143  0.96166201  0.01152175     0.12400
H2387       H  0.96551658  0.52988733  0.98560766     0.09000
H2388       H  0.92235995  0.52487251  0.97486988     0.11700
C2389       C  0.53597626  0.49642760  0.99992215    -0.02900
C2390       C  0.54450996  0.97726929  0.00412361    -0.05500
C2391       C  0.56627138  0.97439627  0.99790918    -0.20600
C2392       C  0.58046776  0.49098182  0.98770876     0.25200
C2393       C  0.57160339  0.50997752  0.98285028    -0.18100
C2394       C  0.54956274  0.51263800  0.98890797    -0.08100
C2395       C  0.60447869  0.48827182  0.98180332    -0.18400
C2396       C  0.62703981  0.51041981  0.97581113    -0.23200
C2397       C  0.65147838  0.50877014  0.96962972     0.27200
C2398       C  0.67031689  0.53166516  0.96165443    -0.19900
C2399       C  0.69300890  0.53093293  0.95523768    -0.09600
C2400       C  0.69732096  0.50716912  0.95659473    -0.10100
C2401       C  0.67935475  0.48477196  0.96494559    -0.03100
C2402       C  0.65663043  0.48549271  0.97141085    -0.18200
H2403       H  0.53396460  0.96404045  0.01244510     0.10900
H2404       H  0.57218303  0.95904922  0.00158190     0.11000
H2405       H  0.58154342  0.52274352  0.97435788     0.10700
H2406       H  0.54357505  0.52788344  0.98518053     0.11800
H2407       H  0.60375783  0.96818995  0.98221766     0.11900
H2408       H  0.62766091  0.53105382  0.97525626     0.13800
H2409       H  0.66720917  0.55005593  0.96021493     0.10300
H2410       H  0.70697758  0.54875444  0.94904602     0.12400
H2411       H  0.68338500  0.96744093  0.96597022     0.09000
H2412       H  0.64382067  0.96851780  0.97728877     0.11700
C2413       C  0.93104013  0.50954390  0.87156814    -0.02900
C2414       C  0.93707837  0.53513085  0.87805583    -0.05500
C2415       C  0.91689947  0.53561082  0.88646519    -0.20600
C2416       C  0.89029101  0.51052643  0.88871734     0.25200
C2417       C  0.88519594  0.98604416  0.88207574    -0.18100
C2418       C  0.90530985  0.98542257  0.87355190    -0.08100
C2419       C  0.86923473  0.51288481  0.89731190    -0.18400
C2420       C  0.84791789  0.99182781  0.90291246    -0.23200
C2421       C  0.82750087  0.99579478  0.91129578     0.27200
C2422       C  0.81272409  0.97581750  0.92111224    -0.19900
C2423       C  0.79321156  0.97897400  0.92905215    -0.09600
C2424       C  0.78622058  0.50021520  0.92719261    -0.10100
C2425       C  0.80089284  0.52021673  0.91738610    -0.03100
C2426       C  0.82033384  0.51715745  0.90943601    -0.18200
H2427       H  0.95734871  0.55495755  0.87653831     0.10900
H2428       H  0.92210188  0.55578184  0.89121077     0.11000
H2429       H  0.86442066  0.96663372  0.88317723     0.10700
H2430       H  0.89971596  0.96549216  0.86849816     0.11800
H2431       H  0.87358074  0.53461369  0.89952956     0.11900
H2432       H  0.84468371  0.97015186  0.90186977     0.13800
H2433       H  0.81632945  0.95776876  0.92264781     0.10300
H2434       H  0.78178381  0.96307491  0.93644572     0.12400
H2435       H  0.79713546  0.53816413  0.91582794     0.09000
H2436       H  0.83061844  0.53259838  0.90177255     0.11700
C2437       C  0.55761695  0.01110481  0.87255496    -0.02900
C2438       C  0.54730471  0.48553121  0.88039538    -0.05500
C2439       C  0.56605304  0.48376570  0.88926954    -0.20600
C2440       C  0.59421356  0.50705284  0.89116356     0.25200
C2441       C  0.60306266  0.53246489  0.88394595    -0.18100
C2442       C  0.58504149  0.03517914  0.87493876    -0.08100
C2443       C  0.61339851  0.50311862  0.90045625    -0.18400
C2444       C  0.64058474  0.52367621  0.90360748    -0.23200
C2445       C  0.66012037  0.51882308  0.91226511     0.27200
C2446       C  0.68987610  0.53904509  0.91201078    -0.19900
C2447       C  0.70937430  0.53533799  0.91963050    -0.09600
C2448       C  0.69956439  0.51145154  0.92781263    -0.10100
C2449       C  0.66982207  0.49138093  0.92831906    -0.03100
C2450       C  0.65021736  0.49505190  0.92067133    -0.18200
H2451       H  0.52582724  0.46701607  0.87917229     0.10900
H2452       H  0.55851190  0.46392120  0.89462727     0.11000
H2453       H  0.62446218  0.55102657  0.88491856     0.10700
H2454       H  0.59188285  0.05531461  0.86992711     0.11800
H2455       H  0.60467535  0.48174799  0.90455749     0.11900
H2456       H  0.64977931  0.54490384  0.89933957     0.13800
H2457       H  0.69817319  0.55764294  0.90574145     0.10300
H2458       H  0.73223985  0.55114034  0.91913149     0.12400
H2459       H  0.66182721  0.47275320  0.93455167     0.09000
H2460       H  0.62748133  0.47930544  0.92150534     0.11700
C2461       C  0.00269267  0.57959465  0.81924596    -0.02900
C2462       C  0.02832291  0.60626187  0.81795188    -0.05500
C2463       C  0.02927186  0.62749489  0.80975904    -0.20600
C2464       C  0.00473928  0.62246698  0.80263014     0.25200
C2465       C  0.97904383  0.59577947  0.80400071    -0.18100
C2466       C  0.97811334  0.57460520  0.81216899    -0.08100
C2467       C  0.00634329  0.64606584  0.79445084    -0.18400
C2468       C  0.98819957  0.64155266  0.78451681    -0.23200
C2469       C  0.98841543  0.66506406  0.77673300     0.27200
C2470       C  0.96407629  0.65841872  0.76907822    -0.19900
C2471       C  0.96283247  0.67983889  0.76186015    -0.09600
C2472       C  0.98605881  0.70833037  0.76206779    -0.10100
C2473       C  0.01057889  0.71502803  0.76952784    -0.03100
C2474       C  0.01190321  0.69362699  0.77671841    -0.18200
H2475       H  0.54758207  0.61077129  0.82331342     0.10900
H2476       H  0.54925501  0.64795315  0.80899052     0.11000
H2477       H  0.95933579  0.59130822  0.79908494     0.10700
H2478       H  0.95793769  0.55438040  0.81305818     0.11800
H2479       H  0.02309091  0.66783444  0.79689199     0.11900
H2480       H  0.97178934  0.61961209  0.78206276     0.13800
H2481       H  0.94574484  0.63662984  0.76882455     0.10300
H2482       H  0.94364480  0.67426146  0.75620490     0.12400
H2483       H  0.52884137  0.73686191  0.76969033     0.09000
H2484       H  0.03148566  0.69969515  0.78209399     0.11700
C2485       C  0.98474055  0.80075675  0.76300671    -0.02900
C2486       C  0.96259495  0.80749597  0.76126001    -0.05500
C2487       C  0.96133759  0.82846959  0.76892440    -0.20600
C2488       C  0.98205653  0.84316504  0.77858399     0.25200
C2489       C  0.00410618  0.83619300  0.78046090    -0.18100
C2490       C  0.50540611  0.81523102  0.77273625    -0.08100
C2491       C  0.97899617  0.86451930  0.78679825    -0.18400
C2492       C  0.00092884  0.88570984  0.79358646    -0.23200
C2493       C  0.99792427  0.90723617  0.80168237     0.27200
C2494       C  0.52293480  0.93354291  0.80457595    -0.19900
C2495       C  0.52154641  0.95406164  0.81249456    -0.09600
C2496       C  0.99511025  0.94867427  0.81788173    -0.10100
C2497       C  0.96994570  0.92239304  0.81500148    -0.03100
C2498       C  0.97130144  0.90183772  0.80698174    -0.18200
H2499       H  0.94588123  0.79612017  0.75409845     0.10900
H2500       H  0.94392780  0.83308802  0.76735282     0.11000
H2501       H  0.51999439  0.84629375  0.78804282     0.10700
H2502       H  0.52250362  0.81020103  0.77439563     0.11800
H2503       H  0.95807965  0.86340919  0.78673690     0.11900
H2504       H  0.52247444  0.88845510  0.79275246     0.13800
H2505       H  0.54372376  0.93824222  0.80071139     0.10300
H2506       H  0.54137300  0.97403832  0.81455765     0.12400
H2507       H  0.94930335  0.91755786  0.81908190     0.09000
H2508       H  0.95163630  0.88153798  0.80527113     0.11700
C2509       C  0.97836010  0.70470792  0.73353009    -0.02900
C2510       C  0.95370992  0.68762221  0.72597307    -0.05500
C2511       C  0.95055747  0.66303685  0.71952814    -0.20600
C2512       C  0.97218011  0.65527634  0.72031795     0.25200
C2513       C  0.49701787  0.67264846  0.72780644    -0.18100
C2514       C  0.00012148  0.69716169  0.73424906    -0.08100
C2515       C  0.96776038  0.62851923  0.71360746    -0.18400
C2516       C  0.98985755  0.62467141  0.70980339    -0.23200
C2517       C  0.98625750  0.59838931  0.70298428     0.27200
C2518       C  0.50936809  0.60089105  0.69551238    -0.19900
C2519       C  0.50748567  0.57685373  0.68914987    -0.09600
C2520       C  0.98255498  0.54959266  0.69023114    -0.10100
C2521       C  0.95953790  0.54674459  0.69788027    -0.03100
C2522       C  0.96127045  0.57095532  0.70416330    -0.18200
H2523       H  0.93657157  0.69292224  0.72532484     0.10900
H2524       H  0.93112963  0.64999757  0.71391457     0.11000
H2525       H  0.51381690  0.66705500  0.72899610     0.10700
H2526       H  0.51936818  0.71003323  0.73999273     0.11800
H2527       H  0.94569689  0.61219278  0.71122312     0.11900
H2528       H  0.51190490  0.64223570  0.71113481     0.13800
H2529       H  0.52895483  0.62162865  0.69452158     0.10300
H2530       H  0.52555771  0.57949947  0.68335814     0.12400
H2531       H  0.94012851  0.52586662  0.69885073     0.09000
H2532       H  0.94330243  0.56799382  0.71009043     0.11700
C2533       C  0.97628963  0.95285659  0.69087376    -0.02900
C2534       C  0.95373379  0.92504750  0.68770695    -0.05500
C2535       C  0.95103919  0.90079405  0.69405993    -0.20600
C2536       C  0.97096460  0.90377222  0.70362394     0.25200
C2537       C  0.99312489  0.93176769  0.70704632    -0.18100
C2538       C  0.49568871  0.95608350  0.70072945    -0.08100
C2539       C  0.96744597  0.87726590  0.70998914    -0.18400
C2540       C  0.98975621  0.87541628  0.71509708    -0.23200
C2541       C  0.98700926  0.84916401  0.72149089     0.27200
C2542       C  0.01046932  0.85219212  0.72888290    -0.19900
C2543       C  0.00905157  0.82850345  0.73525160    -0.09600
C2544       C  0.98421217  0.80112282  0.73426861    -0.10100
C2545       C  0.96098944  0.79768017  0.72662133    -0.03100
C2546       C  0.96226555  0.82146301  0.72031993    -0.18200
H2547       H  0.93835814  0.92212240  0.68021077     0.10900
H2548       H  0.93359535  0.87956122  0.69134236     0.11000
H2549       H  0.50831307  0.93503236  0.71466440     0.10700
H2550       H  0.51314323  0.97737769  0.70335140     0.11800
H2551       H  0.94581262  0.85865807  0.71007579     0.11900
H2552       H  0.01132957  0.89417112  0.71467991     0.13800
H2553       H  0.02989831  0.87309540  0.72987285     0.10300
H2554       H  0.02730761  0.83154318  0.74102792     0.12400
H2555       H  0.94166955  0.77667079  0.72572807     0.09000
H2556       H  0.94393119  0.81778810  0.71449292     0.11700
C2557       C  0.00459530  0.80893090  0.59171587    -0.02900
C2558       C  0.52957908  0.82593318  0.58443952    -0.05500
C2559       C  0.53143406  0.84812598  0.57669636    -0.20600
C2560       C  0.50821437  0.85350111  0.57593003     0.25200
C2561       C  0.98355716  0.83707078  0.58359651    -0.18100
C2562       C  0.98171726  0.81485131  0.59133462    -0.08100
C2563       C  0.51051344  0.87621026  0.56697826    -0.18400
C2564       C  0.98724411  0.87622197  0.56190223    -0.23200
C2565       C  0.98895770  0.89824104  0.55270124     0.27200
C2566       C  0.96491687  0.90220974  0.55161576    -0.19900
C2567       C  0.96510389  0.92231016  0.54302766    -0.09600
C2568       C  0.98929816  0.93880149  0.53520711    -0.10100
C2569       C  0.51329345  0.93461117  0.53609936    -0.03100
C2570       C  0.51313742  0.91446097  0.54475246    -0.18200
H2571       H  0.54752053  0.82175893  0.58464621     0.10900
H2572       H  0.55078332  0.86065343  0.57102566     0.11000
H2573       H  0.96562603  0.84119978  0.58367973     0.10700
H2574       H  0.96220729  0.80191952  0.59684215     0.11800
H2575       H  0.53210479  0.89278363  0.56420347     0.11900
H2576       H  0.96568909  0.85949557  0.56462845     0.13800
H2577       H  0.94593347  0.88983397  0.55752263     0.10300
H2578       H  0.94622720  0.92495328  0.54253844     0.12400
H2579       H  0.53212119  0.94683457  0.53009543     0.09000
H2580       H  0.53172303  0.91136331  0.54498953     0.11700
C2581       C  0.98427046  0.56606394  0.53487988    -0.02900
C2582       C  0.95947418  0.56885223  0.53599849    -0.05500
C2583       C  0.95916085  0.58912844  0.54451931    -0.20600
C2584       C  0.98366356  0.60717312  0.55199910     0.25200
C2585       C  0.50835794  0.60410735  0.55096432    -0.18100
C2586       C  0.50865326  0.58386122  0.54247248    -0.08100
C2587       C  0.98237789  0.62822106  0.56104559    -0.18400
C2588       C  0.50605747  0.65232555  0.56530634    -0.23200
C2589       C  0.50471474  0.67367472  0.57411192     0.27200
C2590       C  0.52726963  0.70253027  0.57384264    -0.19900
C2591       C  0.52657514  0.72338388  0.58181026    -0.09600
C2592       C  0.50346753  0.71570414  0.59035319    -0.10100
C2593       C  0.98117493  0.68672386  0.59083493    -0.03100
C2594       C  0.98184847  0.66585367  0.58286247    -0.18200
H2595       H  0.94029642  0.55530874  0.53032791     0.10900
H2596       H  0.93976115  0.59083807  0.54522115     0.11000
H2597       H  0.52732763  0.61683862  0.55685843     0.10700
H2598       H  0.52798249  0.58200167  0.54193164     0.11800
H2599       H  0.96104726  0.62437315  0.56374379     0.11900
H2600       H  0.52722936  0.65771050  0.56162709     0.13800
H2601       H  0.54527900  0.70905490  0.56729394     0.10300
H2602       H  0.54408392  0.74555985  0.58130809     0.12400
H2603       H  0.96301971  0.68029751  0.59728058     0.09000
H2604       H  0.96454897  0.64367586  0.58364135     0.11700
C2605       C  0.99773776  0.71137211  0.61894942    -0.02900
C2606       C  0.52203499  0.70773605  0.61794235    -0.05500
C2607       C  0.52262556  0.68487342  0.62414714    -0.20600
C2608       C  0.49896200  0.66506778  0.63149114     0.25200
C2609       C  0.97483408  0.66914325  0.63276686    -0.18100
C2610       C  0.97429831  0.69214252  0.62655377    -0.08100
C2611       C  0.50094181  0.64122546  0.63794655    -0.18400
C2612       C  0.97779384  0.61659251  0.64200102    -0.23200
C2613       C  0.97983695  0.59300572  0.64866855     0.27200
C2614       C  0.95633968  0.57364335  0.65622111    -0.19900
C2615       C  0.95717802  0.55131151  0.66280178    -0.09600
C2616       C  0.98145429  0.54766603  0.66188140    -0.10100
C2617       C  0.50473226  0.56640844  0.65408641    -0.03100
C2618       C  0.50400511  0.58895345  0.64753831    -0.18200
H2619       H  0.54054237  0.72257463  0.61226904     0.10900
H2620       H  0.54160165  0.68251325  0.62311348     0.11000
H2621       H  0.95652364  0.65501121  0.63866881     0.10700
H2622       H  0.95543365  0.69470238  0.62752446     0.11800
H2623       H  0.52248601  0.64423960  0.63926070     0.11900
H2624       H  0.95624674  0.61356696  0.64068482     0.13800
H2625       H  0.93737147  0.57604109  0.65717820     0.10300
H2626       H  0.93891143  0.53691095  0.66870641     0.12400
H2627       H  0.52361592  0.56384319  0.65323995     0.09000
H2628       H  0.52221418  0.60278766  0.64151837     0.11700
C2629       C  0.99230729  0.80223028  0.62000062    -0.02900
C2630       C  0.96639087  0.79450521  0.62652487    -0.05500
C2631       C  0.96252239  0.81556094  0.63290140    -0.20600
C2632       C  0.98466897  0.84465504  0.63310575     0.25200
C2633       C  0.51085572  0.85224226  0.62675385    -0.18100
C2634       C  0.51462158  0.83122090  0.62031221    -0.08100
C2635       C  0.97927515  0.86667713  0.63946841    -0.18400
C2636       C  0.50057105  0.89169198  0.64444521    -0.23200
C2637       C  0.49551081  0.91390628  0.65080752     0.27200
C2638       C  0.51556772  0.93236027  0.66003043    -0.19900
C2639       C  0.51193967  0.95379381  0.66612399    -0.09600
C2640       C  0.98836038  0.95753442  0.66299786    -0.10100
C2641       C  0.96862790  0.93966035  0.65354701    -0.03100
C2642       C  0.97204817  0.91791457  0.64754114    -0.18200
H2643       H  0.94884572  0.77229883  0.62636724     0.10900
H2644       H  0.94209535  0.80913142  0.63764413     0.11000
H2645       H  0.52817032  0.87449084  0.62640092     0.10700
H2646       H  0.53482264  0.83766458  0.61536011     0.11800
H2647       H  0.95689979  0.86146190  0.64055368     0.11900
H2648       H  0.52262139  0.89556657  0.64447302     0.13800
H2649       H  0.53397884  0.92998124  0.66263267     0.10300
H2650       H  0.52751522  0.96746927  0.67333337     0.12400
H2651       H  0.95033593  0.94225898  0.65097687     0.09000
H2652       H  0.95660074  0.90464742  0.64022565     0.11700
C2653       C  0.55177893  0.55667716  0.48135562    -0.02900
C2654       C  0.54237550  0.55811353  0.46889074    -0.05500
C2655       C  0.56211586  0.57603243  0.45965236    -0.20600
C2656       C  0.59142761  0.59345275  0.46282057     0.25200
C2657       C  0.60099308  0.59180376  0.47523719    -0.18100
C2658       C  0.58133195  0.57329563  0.48440130    -0.08100
C2659       C  0.61156432  0.61347315  0.45308240    -0.18400
C2660       C  0.63141725  0.64075533  0.45616231    -0.23200
C2661       C  0.65035771  0.66206978  0.44651746     0.27200
C2662       C  0.65760928  0.69099302  0.44812197    -0.19900
C2663       C  0.67673507  0.71206904  0.43967544    -0.09600
C2664       C  0.68965942  0.70478918  0.42963599    -0.10100
C2665       C  0.68220732  0.67571773  0.42792997    -0.03100
C2666       C  0.66244469  0.65443367  0.43623257    -0.18200
H2667       H  0.51971032  0.54531999  0.46628095     0.10900
H2668       H  0.55436893  0.57691510  0.45012072     0.11000
H2669       H  0.62365099  0.60474609  0.47782428     0.10700
H2670       H  0.58908761  0.57249349  0.49393762     0.11800
H2671       H  0.60823815  0.60658674  0.44306985     0.11900
H2672       H  0.63236698  0.64837801  0.46596953     0.13800
H2673       H  0.64855224  0.69731701  0.45599177     0.10300
H2674       H  0.68209044  0.73431187  0.44118830     0.12400
H2675       H  0.69239788  0.66963713  0.42047344     0.09000
H2676       H  0.65759800  0.63229849  0.43494685     0.11700
C2677       C  0.92087300  0.94711618  0.48181267    -0.02900
C2678       C  0.92967371  0.94428763  0.46940651    -0.05500
C2679       C  0.90927025  0.92662951  0.46022214    -0.20600
C2680       C  0.87985480  0.91079629  0.46340506     0.25200
C2681       C  0.87090860  0.91391249  0.47575163    -0.18100
C2682       C  0.89126709  0.93222067  0.48484659    -0.08100
C2683       C  0.85902310  0.89053223  0.45381832    -0.18400
C2684       C  0.83878263  0.86363231  0.45711638    -0.23200
C2685       C  0.81970233  0.84159075  0.44761304     0.27200
C2686       C  0.81167807  0.81263853  0.44975957    -0.19900
C2687       C  0.79284679  0.79101006  0.44131582    -0.09600
C2688       C  0.78110321  0.79780810  0.43068680    -0.10100
C2689       C  0.78911211  0.82685158  0.42851154    -0.03100
C2690       C  0.80850981  0.84864176  0.43683738    -0.18200
H2691       H  0.95237064  0.95580984  0.46679966     0.10900
H2692       H  0.91655048  0.92460230  0.45074089     0.11000
H2693       H  0.84821352  0.90219604  0.47834555     0.10700
H2694       H  0.88397222  0.93417898  0.49433177     0.11800
H2695       H  0.86239203  0.89665929  0.44374567     0.11900
H2696       H  0.83781119  0.85675118  0.46702058     0.13800
H2697       H  0.82004109  0.80674575  0.45800769     0.10300
H2698       H  0.78705107  0.76880461  0.44319388     0.12400
H2699       H  0.77981603  0.83258208  0.42057261     0.09000
H2700       H  0.81391108  0.87077738  0.43510780     0.11700
C2701       C  0.69095890  0.70451819  0.40055399    -0.02900
C2702       C  0.69771128  0.68901625  0.39158040    -0.05500
C2703       C  0.67572868  0.66613847  0.38457370    -0.20600
C2704       C  0.64656184  0.65825117  0.38640248     0.25200
C2705       C  0.63997182  0.67454624  0.39508307    -0.18100
C2706       C  0.66196148  0.69738512  0.40208626    -0.08100
C2707       C  0.62387481  0.63338323  0.37889920    -0.18400
C2708       C  0.59572053  0.61865139  0.38230957    -0.23200
C2709       C  0.57295719  0.59410523  0.37474091     0.27200
C2710       C  0.54410186  0.58776587  0.37596944    -0.19900
C2711       C  0.52198820  0.56516441  0.36891938    -0.09600
C2712       C  0.52832672  0.54841069  0.36052120    -0.10100
C2713       C  0.55697047  0.55399036  0.35959138    -0.03100
C2714       C  0.57912066  0.57662024  0.36663039    -0.18200
H2715       H  0.71997017  0.69427229  0.39018514     0.10900
H2716       H  0.68149674  0.65426561  0.37783968     0.11000
H2717       H  0.61801311  0.67013000  0.39642218     0.10700
H2718       H  0.65634816  0.70952867  0.40873007     0.11800
H2719       H  0.63089261  0.62692344  0.37032493     0.11900
H2720       H  0.58857839  0.62502061  0.39085850     0.13800
H2721       H  0.53872504  0.60069153  0.38224310     0.10300
H2722       H  0.50001626  0.56116768  0.36978177     0.12400
H2723       H  0.56217902  0.54092732  0.35332643     0.09000
H2724       H  0.60086397  0.58007279  0.36578122     0.11700
C2725       C  0.93326625  0.95770461  0.35818295    -0.02900
C2726       C  0.90504265  0.95097121  0.35478375    -0.05500
C2727       C  0.88113670  0.92912937  0.36122125    -0.20600
C2728       C  0.88492096  0.91360596  0.37118163     0.25200
C2729       C  0.91328346  0.92114328  0.37488918    -0.18100
C2730       C  0.93715738  0.94290475  0.36842150    -0.08100
C2731       C  0.85884184  0.89005680  0.37754025    -0.18400
C2732       C  0.85876527  0.86769321  0.38358301    -0.23200
C2733       C  0.83279229  0.84347378  0.38970338     0.27200
C2734       C  0.83696506  0.82619713  0.39863683    -0.19900
C2735       C  0.81337514  0.80320050  0.40467648    -0.09600
C2736       C  0.78505474  0.79698533  0.40190316    -0.10100
C2737       C  0.78064129  0.81353939  0.39268816    -0.03100
C2738       C  0.80425954  0.83660509  0.38663463    -0.18200
H2739       H  0.90152392  0.96251495  0.34709299     0.10900
H2740       H  0.85957182  0.92406844  0.35829215     0.11000
H2741       H  0.91725598  0.91057382  0.38284056     0.10700
H2742       H  0.95874453  0.94799734  0.37131923     0.11800
H2743       H  0.83900436  0.89098971  0.37682757     0.11900
H2744       H  0.87867387  0.86683691  0.38414738     0.13800
H2745       H  0.85862456  0.83070896  0.40106491     0.10300
H2746       H  0.81721100  0.79043066  0.41164467     0.12400
H2747       H  0.75890564  0.80892422  0.39036126     0.09000
H2748       H  0.79990800  0.84863525  0.37950293     0.11700
loop_ 
_geom_bond_atom_site_label_1 
_geom_bond_atom_site_label_2 
_geom_bond_distance 
_geom_bond_site_symmetry_2 
_ccdc_geom_bond_type 
C1            C2   1.415       .  A
C1            C6   1.407       .  A
C1          C675   1.483       .  S
C2            C3   1.399       .  A
C2          C627   1.486       .  S
C3            C4   1.401       .  A
C3            H8   1.085       .  S
C4            C5   1.417       .  A
C4          C603   1.486       .  S
C5            C6   1.408       .  A
C5          C640   1.484       .  S
C6            H7   1.084       .  S
C9           C10   1.417   1_455  A
C9           C14   1.401       .  A
C9         C1870   1.482       .  S
C10          C11   1.409       .  A
C10        C1942   1.489       .  S
C11          C12   1.409       .  A
C11          H16   1.084       .  S
C12          C13   1.415   1_655  A
C12        C1918   1.485       .  S
C13          C14   1.399       .  A
C13         C531   1.486       .  S
C14          H15   1.085       .  S
O17          C20   1.269       .  A
O17       Cd1396   2.484   1_455  S
C18         C507   1.479       .  S
C18          O27   1.263       .  A
C18        O1397   1.267       .  A
O19          C25   1.267       .  A
O19         Cd22   2.488       .  S
C20         C592   1.475       .  S
C20          O28   1.264       .  A
C21         C616   1.474       .  S
C21          O26   1.268       .  A
C21          O24   1.265       .  A
Cd22       O1391   2.484       .  S
Cd22       O1403   2.444       .  S
Cd22       O1402   2.431       .  S
Cd22        O714   2.437   1_545  S
Cd22       O2084   2.496   1_545  S
Cd22        O713   2.476   1_545  S
Cd22        O711   2.439   1_545  S
O23        C1392   1.267   1_455  A
O23       Cd2083   2.496   1_455  S
O24        Cd709   2.441       .  S
C25         C520   1.479       .  S
C25        O1403   1.264       .  A
O26        Cd709   2.476       .  S
O27        Cd709   2.439       .  S
O28       Cd1396   2.431   1_455  S
O29        C1399   1.264   1_455  A
O29       Cd1396   2.444   1_455  S
C30          C31   1.417       .  A
C30          C35   1.409       .  A
C30         C483   1.484       .  S
C31          C32   1.403       .  A
C31         C424   1.492       .  S
C32          C33   1.404       .  A
C32          H37   1.084       .  S
C33          C34   1.417       .  A
C33         C411   1.482       .  S
C34          C35   1.408       .  A
C34         C448   1.492       .  S
C35          H36   1.084       .  S
O38        C1415   1.269       .  A
O38       Cd2104   2.492   1_455  S
C39         C376   1.482       .  S
C39        O1422   1.265       .  A
C39         O731   1.270       .  A
O40         C733   1.270       .  A
O40         Cd43   2.489       .  S
C41         C400   1.482       .  S
C41          O49   1.265       .  A
C41        O1412   1.269       .  A
C42         C435   1.483       .  S
C42          O47   1.270       .  A
C42        O1419   1.265       .  A
Cd43         O48   2.440       .  S
Cd43         O47   2.501       .  S
Cd43       O2099   2.490       .  S
Cd43        O737   2.436       .  S
Cd43        O736   2.440       .  S
Cd43       O2105   2.493       .  S
Cd43       O1419   2.435       .  S
O44         C726   1.270       .  A
O44       Cd2104   2.493   1_455  S
O45        C1416   1.265   1_455  A
O45       Cd1417   2.435   1_455  S
C46         C352   1.481       .  S
C46          O50   1.265       .  A
C46         O727   1.269   1_545  A
O48        C1413   1.265       .  A
O49        Cd730   2.443       .  S
O50        Cd730   2.438       .  S
C51          C52   1.417       .  A
C51          C56   1.410       .  A
C51         C339   1.486       .  S
C52          C53   1.400       .  A
C52         C387   1.484       .  S
C53          C54   1.402       .  A
C53          H58   1.085       .  S
C54          C55   1.417       .  A
C54         C363   1.486       .  S
C55          C56   1.409       .  A
C55         C304   1.488       .  S
C56          H57   1.084       .  S
C59          C60   1.415       .  A
C59          C64   1.409       .  A
C59         C291   1.487       .  S
C60          C61   1.398       .  A
C60         C219   1.479       .  S
C61          C62   1.399       .  A
C61          H66   1.085       .  S
C62          C63   1.417       .  A
C62         C232   1.480       .  S
C63          C64   1.408       .  A
C63         C256   1.490       .  S
C64          H65   1.084       .  S
C67          C68   1.419       .  A
C67         C759   1.405       .  A
C67         C664   1.488       .  S
C68         C756   1.408       .  A
C68         C280   1.489       .  S
C69         C755   1.408   1_545  A
C69        C1444   1.406       .  A
C69          H74   1.084       .  S
C70          C71   1.415       .  A
C70        C1443   1.406   1_455  A
C70         C267   1.488       .  S
C71        C1446   1.402   1_455  A
C71         C651   1.483       .  S
C72         C754   1.404   1_545  A
C72        C1445   1.402       .  A
C72          H73   1.084       .  S
O75          C78   1.266       .  A
O75        Cd767   2.489       .  S
C76         C184   1.477       .  S
C76          O85   1.266   1_565  A
C76         O768   1.267       .  A
O77          C83   1.266   1_545  A
O77         Cd80   2.482   1_545  S
C78         C208   1.476       .  S
C78          O86   1.263       .  A
C79         C243   1.479       .  S
C79          O84   1.267       .  A
C79          O82   1.263       .  A
Cd80        O762   2.488       .  S
Cd80        O774   2.454       .  S
Cd80        O773   2.428       .  S
Cd80       O1459   2.450   1_565  S
Cd80       O2142   2.470       .  S
Cd80       O1458   2.492   1_565  S
Cd80       O1456   2.443   1_565  S
O81         C763   1.267       .  A
O81       Cd2141   2.472   1_455  S
O82       Cd1454   2.443   1_445  S
C83         C171   1.477       .  S
C83         O774   1.264       .  A
O84       Cd1454   2.492   1_445  S
O85       Cd1454   2.450   1_445  S
O86        Cd767   2.431       .  S
O87         C770   1.264       .  A
O87        Cd767   2.455       .  S
C88          C89   1.422       .  A
C88          C93   1.407       .  A
C88         C147   1.492       .  S
C89          C90   1.406       .  A
C89         C195   1.490       .  S
C90          C91   1.403       .  A
C90          H95   1.084       .  S
C91          C92   1.414       .  A
C91         C160   1.489       .  S
C92          C93   1.402       .  A
C92         C112   1.483       .  S
C93          H94   1.084       .  S
C96          C97   1.421       .  A
C96        C1475   1.409   1_445  A
C96         C328   1.487   1_544  S
C97        C1472   1.406   1_455  A
C97         C136   1.493       .  S
C98          C99   1.401       .  A
C98        C1471   1.406       .  A
C98         H103   1.084       .  S
C99         C100   1.414       .  A
C99         C123   1.481       .  S
C100        C101   1.406   1_545  A
C100        C315   1.489   1_544  S
C101       C1470   1.409   1_565  A
C101        H102   1.084   1_554  S
C104        C105   1.417       .  A
C104        C796   1.405       .  A
C104        C579   1.488       .  S
C105        C793   1.407       .  A
C105        C472   1.484       .  S
C106        C107   1.406       .  A
C106        C792   1.408   1_545  A
C106        H111   1.084       .  S
C107        C108   1.416       .  A
C107        C459   1.490       .  S
C108        C109   1.405       .  A
C108        C555   1.482       .  S
C109        C791   1.404   1_545  A
C109       H1484   1.084       .  S
H110       C1483   1.084       .  S
C112        C113   1.403       .  A
C112        C117   1.402       .  A
C113        C114   1.396       .  A
C113        H126   1.083       .  S
C114        C802   1.404       .  A
C114        H127   1.083       .  S
C115        C116   1.411       .  A
C115        C801   1.404   1_545  A
C115        C118   1.489   1_545  S
C116        C804   1.398       .  A
C116        H128   1.080       .  S
C117        C803   1.399       .  A
C117        H129   1.083       .  S
C118        C119   1.347   1_565  D
C118        H130   1.086       .  S
C119        C120   1.484       .  S
C119        H131   1.083       .  S
C120        C121   1.403       .  A
C120        C125   1.408   1_545  A
C121        C122   1.397       .  A
C121        H132   1.083       .  S
C122        C123   1.403       .  A
C122        H133   1.083       .  S
C123        C124   1.403   1_545  A
C124        C125   1.399       .  A
C124        H821   1.083       .  S
C125        H135   1.082       .  S
H134        C811   1.083       .  S
C136        C137   1.405   1_545  A
C136        C828   1.408       .  A
C137        C138   1.397   1_565  A
C137        H150   1.083       .  S
C138        C139   1.401       .  A
C138        H151   1.083   1_545  S
C139        C827   1.406       .  A
C139        C142   1.482       .  S
C140        C141   1.401       .  A
C140        C826   1.405       .  A
C140        H152   1.083       .  S
C141        C823   1.408       .  A
C141        H153   1.083       .  S
C142        C143   1.345       .  D
C142        H154   1.087       .  S
C143        C144   1.484       .  S
C143        H842   1.087       .  S
C144        C149   1.406       .  A
C144        C832   1.402       .  A
C145        C146   1.398       .  A
C145        C831   1.402       .  A
C145        H156   1.083       .  S
C146        C147   1.407       .  A
C146        H157   1.083       .  S
C147        C835   1.407       .  A
C148        C149   1.400       .  A
C148        C834   1.407       .  A
C148        H158   1.083       .  S
C149        H159   1.083       .  S
H155        C830   1.087       .  S
C160        C161   1.406       .  A
C160        C165   1.405       .  A
C161        C162   1.397       .  A
C161        H861   1.083       .  S
C162        C163   1.402       .  A
C162        H175   1.083       .  S
C163        C164   1.406       .  A
C163        C166   1.481       .  S
C164        C165   1.397       .  A
C164        H176   1.082       .  S
C165        H177   1.083       .  S
C166        C167   1.346       .  D
C166        H178   1.086       .  S
C167        C168   1.482       .  S
C167        H179   1.086       .  S
C168        C169   1.403       .  A
C168        C173   1.406       .  A
C169        C857   1.399       .  A
C169        H180   1.083       .  S
C170        C171   1.405   1_545  A
C170        C856   1.399       .  A
C170        H181   1.083       .  S
C171        C172   1.404       .  A
C172        C860   1.397       .  A
C172        H182   1.083       .  S
C173        C859   1.397       .  A
C173        H183   1.082       .  S
H174        C848   1.083       .  S
C184        C185   1.405       .  A
C184        C189   1.404       .  A
C185        C186   1.400       .  A
C185        H198   1.083       .  S
C186        C187   1.403       .  A
C186        H199   1.083       .  S
C187        C188   1.405       .  A
C187        C190   1.481       .  S
C188        C189   1.397       .  A
C188        H200   1.083   1_565  S
C189        H201   1.083   1_565  S
C190        C191   1.345       .  D
C190        H202   1.087       .  S
C191        C192   1.481       .  S
C191        H203   1.086       .  S
C192        C193   1.402       .  A
C192        C197   1.405   1_565  A
C193        C881   1.399       .  A
C193        H204   1.083       .  S
C194        C195   1.406       .  A
C194        C880   1.399       .  A
C194        H205   1.083       .  S
C195        C883   1.406       .  A
C196        C197   1.397       .  A
C196        C882   1.406       .  A
C196        H206   1.083       .  S
C197        H207   1.083       .  S
C208        C209   1.405       .  A
C208        C213   1.404       .  A
C209        C210   1.401       .  A
C209        H222   1.083       .  S
C210        C211   1.404       .  A
C210        H223   1.083       .  S
C211        C212   1.405       .  A
C211        C214   1.483       .  S
C212        C213   1.393       .  A
C212        H224   1.082       .  S
C213        H225   1.083       .  S
C214        C215   1.346       .  D
C214        H226   1.086       .  S
C215        C216   1.481       .  S
C215        H227   1.086       .  S
C216        C217   1.402       .  A
C216        C221   1.408       .  A
C217        C218   1.395       .  A
C217        H228   1.083       .  S
C218        C219   1.403       .  A
C218        H229   1.083       .  S
C219        C220   1.403       .  A
C220        C221   1.400       .  A
C220        H230   1.083       .  S
C221        H231   1.082       .  S
C232        C233   1.403       .  A
C232        C237   1.403       .  A
C233        C234   1.395       .  A
C233        H246   1.083       .  S
C234        C235   1.402       .  A
C234        H247   1.083       .  S
C235        C236   1.408       .  A
C235        C238   1.481       .  S
C236        C237   1.399       .  A
C236        H248   1.082       .  S
C237        H249   1.083       .  S
C238        C239   1.345       .  D
C238        H250   1.086       .  S
C239        C240   1.482       .  S
C239        H251   1.086       .  S
C240        C241   1.403       .  A
C240        C245   1.405       .  A
C241        C242   1.400       .  A
C241        H252   1.083       .  S
C242        C243   1.405       .  A
C242        H253   1.083       .  S
C243        C244   1.405       .  A
C244        C245   1.396       .  A
C244        H254   1.083       .  S
C245        H255   1.082       .  S
C256        C257   1.404       .  A
C256        C261   1.405       .  A
C257        C258   1.398       .  A
C257        H270   1.083       .  S
C258        C259   1.405       .  A
C258        H271   1.083       .  S
C259        C260   1.410       .  A
C259        C262   1.492       .  S
C260        C261   1.401       .  A
C260        H272   1.081       .  S
C261        H273   1.083       .  S
C262        C263   1.350       .  D
C262        H274   1.083       .  S
C263        C264   1.494       .  S
C263        H275   1.084       .  S
C264        C265   1.405       .  A
C264        C269   1.411       .  A
C265        C266   1.398       .  A
C265        H276   1.083       .  S
C266        C267   1.404       .  A
C266        H277   1.083       .  S
C267        C268   1.403       .  A
C268        C269   1.401       .  A
C268        H278   1.083       .  S
C269        H279   1.080       .  S
C280        C281   1.403       .  A
C280        C285   1.405       .  A
C281        C282   1.398       .  A
C281        H294   1.083       .  S
C282        C283   1.405       .  A
C282        H295   1.083       .  S
C283        C284   1.409       .  A
C283        C286   1.490       .  S
C284        C285   1.399       .  A
C284        H296   1.080       .  S
C285        H297   1.083       .  S
C286        C287   1.349       .  D
C286        H298   1.085       .  S
C287        C288   1.488       .  S
C287        H299   1.084       .  S
C288        C289   1.404       .  A
C288        C293   1.408       .  A
C289        C290   1.398       .  A
C289        H300   1.083       .  S
C290        C291   1.404       .  A
C290        H301   1.083       .  S
C291        C292   1.405       .  A
C292        C293   1.399       .  A
C292        H302   1.083       .  S
C293        H303   1.081       .  S
C304        C305   1.403       .  A
C304        C309   1.404   1_545  A
C305        C306   1.397       .  A
C305        H318   1.083       .  S
C306        C307   1.405       .  A
C306        H319   1.083       .  S
C307        C995   1.411   1_545  A
C307        C310   1.494       .  S
C308        C994   1.411       .  A
C308        C996   1.404       .  A
C308        H320   1.080       .  S
C309        C995   1.404       .  A
C309       H1008   1.083       .  S
C310        C998   1.350   1_545  D
C310        H322   1.085       .  S
C311        C312   1.491       .  S
C311        C997   1.349       .  D
C311        H323   1.084       .  S
C312        C313   1.404       .  A
C312       C1004   1.410       .  A
C313        C314   1.399   1_556  A
C313        H324   1.083   1_556  S
C314       C1002   1.405   1_554  A
C314        H325   1.083       .  S
C315        C316   1.402   1_565  A
C315       C1001   1.405   1_556  A
C316        C317   1.401       .  A
C316        H326   1.083       .  S
C317        C999   1.411   1_545  A
C317        H327   1.081       .  S
H321        C996   1.083       .  S
C328        C333   1.403   1_565  A
C328       C1016   1.405   1_556  A
C329        C330   1.399   1_554  A
C329       C1015   1.405   1_554  A
C329        H342   1.083       .  S
C330       C1018   1.404       .  A
C330        H343   1.083   1_556  S
C331        C332   1.409   1_565  A
C331       C1017   1.404       .  A
C331        C334   1.489       .  S
C332        C333   1.399       .  A
C332        H344   1.082       .  S
C333        H345   1.083       .  S
C334        C335   1.349   1_565  D
C334       H1033   1.083       .  S
C335        C336   1.492       .  S
C335        H347   1.086       .  S
C336        C337   1.405       .  A
C336        C341   1.411   1_545  A
C337        C338   1.397       .  A
C337        H348   1.083       .  S
C338        C339   1.403       .  A
C338        H349   1.083       .  S
C339        C340   1.403   1_545  A
C340        C341   1.402       .  A
C340       H1037   1.083       .  S
C341       H1038   1.080       .  S
H346       C1021   1.083       .  S
H350       C1027   1.083       .  S
H351       C1028   1.080       .  S
C352        C353   1.405       .  A
C352       C1044   1.405   1_545  A
C353        C354   1.395       .  A
C353        H366   1.083       .  S
C354        C355   1.402       .  A
C354        H367   1.084       .  S
C355       C1043   1.409   1_545  A
C355        C358   1.486       .  S
C356        C357   1.402       .  A
C356       C1042   1.409       .  A
C356        H368   1.081       .  S
C357       C1039   1.405       .  A
C357        H369   1.083       .  S
C358       C1046   1.347   1_545  D
C358        H370   1.086       .  S
C359        C360   1.487       .  S
C359       C1045   1.347       .  D
C359        H371   1.085       .  S
C360        C361   1.404       .  A
C360       C1052   1.408       .  A
C361        C362   1.400       .  A
C361        H372   1.083       .  S
C362       C1050   1.405       .  A
C362        H373   1.083       .  S
C363        C364   1.403       .  A
C363       C1049   1.405   1_545  A
C364        C365   1.396       .  A
C364        H374   1.083       .  S
C365       C1047   1.408   1_545  A
C365        H375   1.082       .  S
C376        C381   1.404       .  A
C376       C1064   1.404       .  A
C377        C378   1.396       .  A
C377       C1063   1.404   1_565  A
C377        H390   1.083       .  S
C378        C379   1.404   1_565  A
C378        H391   1.083       .  S
C379        C380   1.412       .  A
C379        C382   1.495       .  S
C380       C1068   1.402       .  A
C380        H392   1.079       .  S
C381       C1067   1.402       .  A
C381        H393   1.083       .  S
C382        C383   1.349       .  D
C382        H394   1.084   1_545  S
C383        C384   1.492       .  S
C383        H395   1.082       .  S
C384        C385   1.404       .  A
C384        C389   1.412   1_545  A
C385        C386   1.396       .  A
C385        H396   1.083       .  S
C386        C387   1.403       .  A
C386        H397   1.083       .  S
C387        C388   1.403   1_545  A
C388        C389   1.401       .  A
C388        H398   1.083       .  S
C389        H399   1.080       .  S
C400        C401   1.404       .  A
C400        C405   1.405       .  A
C401        C402   1.401       .  A
C401       H1788   1.083       .  S
C402        C403   1.406       .  A
C402       H1789   1.083       .  S
C403        C404   1.407       .  A
C403        C406   1.489       .  S
C404        C405   1.397       .  A
C404        H416   1.081       .  S
C405        H417   1.083       .  S
C406        C407   1.350       .  D
C406        H418   1.083       .  S
C407        C408   1.490       .  S
C407        H419   1.084       .  S
C408        C409   1.406       .  A
C408        C413   1.410       .  A
C409        C410   1.398       .  A
C409        H420   1.083       .  S
C410        C411   1.402       .  A
C410        H421   1.083       .  S
C411        C412   1.402       .  A
C412        C413   1.398       .  A
C412       H1796   1.083       .  S
C413        H423   1.080       .  S
H414       C1775   1.083       .  S
H415       C1776   1.083       .  S
H422       C1786   1.083       .  S
C424        C425   1.404       .  A
C424       C1803   1.406       .  A
C425        C426   1.397       .  A
C425        H438   1.083       .  S
C426        C427   1.403       .  A
C426        H439   1.083       .  S
C427        C428   1.410       .  A
C427        C430   1.492       .  S
C428       C1803   1.403       .  A
C428       H1814   1.081       .  S
C429       C1798   1.406   1_455  A
C429       C1802   1.403       .  A
C429        H441   1.083       .  S
C430        C431   1.348       .  D
C430        H442   1.085       .  S
C431        C432   1.492       .  S
C431       H1817   1.085       .  S
C432        C437   1.411       .  A
C432       C1807   1.403       .  A
C433        C434   1.397       .  A
C433       C1806   1.403   1_455  A
C433        H444   1.083       .  S
C434       C1809   1.405   1_455  A
C434        H445   1.083       .  S
C435        C436   1.405       .  A
C435       C1808   1.405       .  A
C436        C437   1.403       .  A
C436        H446   1.083       .  S
C437        H447   1.081       .  S
H440       C1802   1.081       .  S
H443       C1805   1.085       .  S
C448        C449   1.405       .  A
C448        C453   1.405       .  A
C449        C450   1.403       .  A
C449        H462   1.083       .  S
C450        C451   1.406       .  A
C450        H463   1.083       .  S
C451       C1826   1.409       .  A
C451        C454   1.495       .  S
C452       C1825   1.409       .  A
C452       C1827   1.400   1_655  A
C452        H464   1.081   1_655  S
C453       C1826   1.400       .  A
C453       H1839   1.083       .  S
C454        C455   1.350       .  D
C454        H466   1.086       .  S
C455        C456   1.492       .  S
C455       H1841   1.086       .  S
C456        C461   1.410       .  A
C456       C1831   1.404       .  A
C457        C458   1.397       .  A
C457       C1830   1.404   1_455  A
C457        H468   1.083       .  S
C458       C1833   1.403   1_455  A
C458        H469   1.083       .  S
C459        C460   1.405       .  A
C459       C1832   1.403       .  A
C460        C461   1.406       .  A
C460        H470   1.083       .  S
C461        H471   1.082       .  S
H465       C1827   1.083       .  S
H467       C1829   1.086   1_455  S
C472        C473   1.404       .  A
C472       C1851   1.403       .  A
C473        C474   1.397       .  A
C473        H486   1.083       .  S
C474        C475   1.403       .  A
C474        H487   1.083       .  S
C475        C476   1.409       .  A
C475        C478   1.488       .  S
C476       C1851   1.401       .  A
C476       H1862   1.082       .  S
C477       C1846   1.403       .  A
C477       C1850   1.401       .  A
C477        H489   1.083   1_655  S
C478        C479   1.349       .  D
C478        H490   1.083       .  S
C479        C480   1.492       .  S
C479        H491   1.085       .  S
C480        C481   1.405       .  A
C480        C485   1.412       .  A
C481        C482   1.397       .  A
C481        H492   1.083       .  S
C482        C483   1.403       .  A
C482        H493   1.083       .  S
C483        C484   1.402       .  A
C484        C485   1.402       .  A
C484        H494   1.083       .  S
C485        H495   1.080       .  S
H488       C1850   1.082   1_455  S
C496        C501   1.403       .  A
C496       C1871   1.403       .  A
C496       C1383   1.482       .  S
C497        C498   1.396       .  A
C497       C1870   1.403       .  A
C497        H510   1.083       .  S
C498        C499   1.403       .  A
C498        H511   1.083       .  S
C499       C1874   1.410   1_455  A
C499        C502   1.487       .  S
C500        C501   1.398       .  A
C500       C1873   1.410       .  A
C500        H512   1.081       .  S
C501        H513   1.083       .  S
C502       C1877   1.347   1_455  D
C502        H514   1.084       .  S
C503        C504   1.486       .  S
C503       C1876   1.347       .  D
C503        H515   1.084       .  S
C504        C505   1.402       .  A
C504       C1883   1.410       .  A
C505        C506   1.395       .  A
C505        H516   1.084       .  S
C506        C507   1.405       .  A
C506        H517   1.083       .  S
C507       C1882   1.405       .  A
C508        C509   1.401       .  A
C508       C1881   1.405   1_455  A
C508        H518   1.083       .  S
C509       C1878   1.410   1_455  A
C509        H519   1.081       .  S
C520        C521   1.404       .  A
C520       C1899   1.405       .  A
C521        C522   1.400       .  A
C521        H534   1.083       .  S
C522        C523   1.405       .  A
C522        H535   1.083       .  S
C523       C1898   1.407       .  A
C523        C526   1.487       .  S
C524        C525   1.396       .  A
C524       C1897   1.407   1_455  A
C524        H536   1.081       .  S
C525       C1894   1.405   1_455  A
C525        H537   1.083       .  S
C526       C1901   1.348       .  D
C526        H538   1.086       .  S
C527        C528   1.484       .  S
C527       C1900   1.348   1_455  D
C527        H539   1.085       .  S
C528        C529   1.404       .  A
C528       C1907   1.407   1_455  A
C529        C530   1.397       .  A
C529        H540   1.083       .  S
C530        C531   1.404       .  A
C530        H541   1.083       .  S
C531       C1906   1.404   1_455  A
C532        C533   1.398       .  A
C532       C1905   1.404       .  A
C532        H542   1.083       .  S
C533       C1902   1.407       .  A
C533        H543   1.082       .  S
C544        C549   1.403       .  A
C544       C1919   1.404       .  A
C544       C1386   1.485       .  S
C545        C546   1.396       .  A
C545       C1918   1.404   1_455  A
C545        H558   1.083       .  S
C546        C547   1.403   1_455  A
C546        H559   1.083       .  S
C547       C1922   1.411       .  A
C547        C550   1.489   1_655  S
C548        C549   1.402       .  A
C548       C1921   1.411       .  A
C548        H560   1.081       .  S
C549        H561   1.083       .  S
C550       C1925   1.347   1_455  D
C550        H562   1.084       .  S
C551        C552   1.489       .  S
C551       C1924   1.347       .  D
C551        H563   1.084       .  S
C552        C553   1.404       .  A
C552       C1931   1.411       .  A
C553        C554   1.396       .  A
C553        H564   1.083       .  S
C554        C555   1.402       .  A
C554        H565   1.083       .  S
C555       C1930   1.402       .  A
C556        C557   1.401       .  A
C556       C1929   1.402   1_455  A
C556        H566   1.083       .  S
C557       C1926   1.411   1_455  A
C557        H567   1.081       .  S
C568        C569   1.403       .  A
C568       C1947   1.405       .  A
C568       C1384   1.489       .  S
C569        C570   1.401       .  A
C569        H582   1.083       .  S
C570        C571   1.406       .  A
C570        H583   1.083       .  S
C571       C1946   1.409       .  A
C571        C574   1.492       .  S
C572        C573   1.400       .  A
C572       C1945   1.409   1_455  A
C572        H584   1.082       .  S
C573       C1942   1.405   1_455  A
C573        H585   1.083       .  S
C574       C1949   1.349       .  D
C574        H586   1.086       .  S
C575        C576   1.491   1_455  S
C575       C1948   1.349   1_455  D
C575        H587   1.086       .  S
C576        C577   1.404   1_655  A
C576       C1955   1.410       .  A
C577        C578   1.398       .  A
C577        H588   1.083       .  S
C578       C1953   1.403   1_455  A
C578        H589   1.083       .  S
C579        C580   1.404       .  A
C579       C1952   1.403       .  A
C580        C581   1.404       .  A
C580        H590   1.083       .  S
C581       C1950   1.410       .  A
C581        H591   1.082       .  S
C592        C593   1.405       .  A
C592        C597   1.404       .  A
C593        C594   1.396       .  A
C593        H606   1.083       .  S
C594        C595   1.400       .  A
C594        H607   1.083       .  S
C595        C596   1.407       .  A
C595        C598   1.478       .  S
C596        C597   1.400       .  A
C596        H608   1.083       .  S
C597        H609   1.083       .  S
C598        C599   1.341       .  D
C598        H610   1.087       .  S
C599        C600   1.478       .  S
C599        H611   1.087       .  S
C600        C601   1.400       .  A
C600        C605   1.407       .  A
C601        C602   1.394       .  A
C601        H612   1.084       .  S
C602        C603   1.405       .  A
C602        H613   1.083       .  S
C603        C604   1.406       .  A
C604        C605   1.400       .  A
C604        H614   1.083       .  S
C605        H615   1.083       .  S
C616        C617   1.405       .  A
C616        C621   1.404       .  A
C617        C618   1.397       .  A
C617        H630   1.083       .  S
C618        C619   1.401       .  A
C618        H631   1.083       .  S
C619        C620   1.407       .  A
C619        C622   1.479       .  S
C620        C621   1.399       .  A
C620        H632   1.083       .  S
C621        H633   1.083       .  S
C622        C623   1.342       .  D
C622        H634   1.087       .  S
C623        C624   1.479       .  S
C623        H635   1.087       .  S
C624        C625   1.401       .  A
C624        C629   1.407       .  A
C625        C626   1.394       .  A
C625        H636   1.084       .  S
C626        C627   1.404       .  A
C626        H637   1.083       .  S
C627        C628   1.406       .  A
C628        C629   1.400       .  A
C628        H638   1.083       .  S
C629        H639   1.083       .  S
C640        C641   1.403       .  A
C640        C645   1.403       .  A
C641        C642   1.399       .  A
C641        H654   1.083       .  S
C642        C643   1.405       .  A
C642        H655   1.083       .  S
C643        C644   1.410       .  A
C643        C646   1.490       .  S
C644        C645   1.398       .  A
C644        H656   1.080       .  S
C645        H657   1.083       .  S
C646        C647   1.349       .  D
C646        H658   1.085       .  S
C647        C648   1.487       .  S
C647        H659   1.084       .  S
C648        C649   1.405       .  A
C648        C653   1.408       .  A
C649        C650   1.398       .  A
C649        H660   1.083       .  S
C650        C651   1.402       .  A
C650        H661   1.083   1_455  S
C651        C652   1.404       .  A
C652        C653   1.398       .  A
C652        H662   1.083       .  S
C653        H663   1.081       .  S
C664        C665   1.405       .  A
C664        C669   1.404       .  A
C665        C666   1.399       .  A
C665        H678   1.083       .  S
C666        C667   1.404       .  A
C666        H679   1.084       .  S
C667        C668   1.409       .  A
C667        C670   1.488       .  S
C668        C669   1.398       .  A
C668        H680   1.081       .  S
C669        H681   1.083       .  S
C670        C671   1.349       .  D
C670        H682   1.084       .  S
C671        C672   1.489       .  S
C671        H683   1.085       .  S
C672        C673   1.405       .  A
C672        C677   1.410       .  A
C673        C674   1.397       .  A
C673        H684   1.084       .  S
C674        C675   1.403       .  A
C674        H685   1.083       .  S
C675        C676   1.403       .  A
C676        C677   1.400       .  A
C676        H686   1.083       .  S
C677        H687   1.080       .  S
C688        C689   1.415       .  A
C688        C693   1.407       .  A
C688       C1362   1.482       .  S
C689        C690   1.399       .  A
C689       C1314   1.487       .  S
C690        C691   1.401       .  A
C690        H695   1.085       .  S
C691        C692   1.417       .  A
C691       C1290   1.486       .  S
C692        C693   1.408       .  A
C692       C1327   1.485       .  S
C693        H694   1.084       .  S
C696        C697   1.417   1_455  A
C696        C701   1.402       .  A
C696       C2557   1.482       .  S
C697        C698   1.408       .  A
C697       C2629   1.488       .  S
C698        C699   1.409       .  A
C698        H703   1.084       .  S
C699        C700   1.416   1_655  A
C699       C2605   1.485       .  S
C700        C701   1.400       .  A
C700       C1218   1.488       .  S
C701        H702   1.085       .  S
O704        C707   1.269       .  A
O704      Cd2083   2.484   1_455  S
C705       C1194   1.479       .  S
C705        O714   1.263       .  A
C705       O2084   1.267       .  A
O706        C712   1.267       .  A
O706       Cd709   2.490       .  S
C707       C1279   1.474       .  S
C707        O715   1.264       .  A
C708       C1303   1.474       .  S
C708        O713   1.268       .  A
C708        O711   1.265       .  A
Cd709      O2078   2.484       .  S
Cd709      O2090   2.449       .  S
Cd709      O2089   2.432       .  S
Cd709      O1397   2.496       .  S
O710       C2079   1.267   1_455  A
O710      Cd1396   2.496   1_465  S
C712       C1207   1.480       .  S
C712       O2090   1.264       .  A
O715      Cd2083   2.432   1_455  S
O716       C2086   1.264   1_455  A
O716      Cd2083   2.449   1_455  S
C717        C718   1.417       .  A
C717        C722   1.408       .  A
C717       C1170   1.484       .  S
C718        C719   1.403       .  A
C718       C1111   1.493       .  S
C719        C720   1.404       .  A
C719        H724   1.084       .  S
C720        C721   1.417       .  A
C720       C1098   1.483       .  S
C721        C722   1.407       .  A
C721       C1135   1.491       .  S
C722        H723   1.084       .  S
O725       C2102   1.269       .  A
O725      Cd1417   2.490   1_455  S
C726       C1063   1.482       .  S
C726       O2109   1.265   1_545  A
O727       Cd730   2.493   1_565  S
C728       C1087   1.481       .  S
C728       O2099   1.269       .  A
C728        O736   1.265       .  A
C729       C1122   1.483       .  S
C729        O734   1.270       .  A
C729       O2106   1.265       .  A
Cd730      O1412   2.492       .  S
Cd730       O735   2.440   1_545  S
Cd730      O1418   2.493       .  S
Cd730       O734   2.500   1_545  S
Cd730      O2106   2.434   1_545  S
O731      Cd1417   2.493   1_455  S
O732       C2103   1.265   1_455  A
O732      Cd2104   2.434   1_465  S
C733       C1039   1.480       .  S
C733        O737   1.265       .  A
O735       C2100   1.265   1_565  A
C738        C739   1.417       .  A
C738        C743   1.409       .  A
C738       C1026   1.485       .  S
C739        C740   1.400       .  A
C739       C1074   1.485       .  S
C740        C741   1.401       .  A
C740        H745   1.085       .  S
C741        C742   1.416       .  A
C741       C1050   1.485       .  S
C742        C743   1.408       .  A
C742        C991   1.487       .  S
C743        H744   1.084       .  S
C746        C747   1.415       .  A
C746        C751   1.409       .  A
C746        C978   1.487       .  S
C747        C748   1.398       .  A
C747        C906   1.479       .  S
C748        C749   1.399       .  A
C748        H753   1.085       .  S
C749        C750   1.417       .  A
C749        C919   1.480       .  S
C750        C751   1.408       .  A
C750        C943   1.490       .  S
C751        H752   1.084       .  S
C754        C755   1.420       .  A
C754       C1351   1.487       .  S
C755        C967   1.489       .  S
C756       C2131   1.405       .  A
C756        H761   1.084       .  S
C757       C2130   1.405   1_455  A
C757        C758   1.415       .  A
C757        C954   1.489       .  S
C758       C2133   1.403   1_455  A
C758       C1338   1.483       .  S
C759       C2132   1.403       .  A
C759        H760   1.084       .  S
O762        C765   1.266       .  A
C763        C871   1.478       .  S
C763        O772   1.266       .  A
O764        C770   1.266       .  A
O764       Cd767   2.485       .  S
C765        C895   1.476       .  S
C765        O773   1.263       .  A
C766        C930   1.479       .  S
C766        O771   1.267       .  A
C766        O769   1.263       .  A
Cd767      O2146   2.453       .  S
Cd767      O1455   2.472       .  S
Cd767      O2145   2.495       .  S
Cd767      O2143   2.444       .  S
O768      Cd1454   2.470   1_455  S
O769      Cd2141   2.444   1_455  S
C770        C858   1.477       .  S
O771      Cd2141   2.495   1_455  S
O772      Cd2141   2.453   1_455  S
C775        C776   1.422       .  A
C775        C780   1.407       .  A
C775        C834   1.493       .  S
C776        C777   1.406       .  A
C776        C882   1.489       .  S
C777        C778   1.402       .  A
C777        H782   1.084       .  S
C778        C779   1.414       .  A
C778        C847   1.489       .  S
C779        C780   1.402       .  A
C779        C799   1.482       .  S
C780        H781   1.084       .  S
C783        C784   1.421       .  A
C783       C2162   1.409   1_455  A
C783       C1015   1.487   1_554  S
C784       C2159   1.405   1_455  A
C784        C823   1.491       .  S
C785       C2158   1.405       .  A
C785        C786   1.401       .  A
C785        H790   1.084       .  S
C786        C787   1.414       .  A
C786        C810   1.481       .  S
C787        C788   1.405       .  A
C787       C1002   1.487   1_554  S
C788       C2157   1.409       .  A
C788        H789   1.084   1_554  S
C791        C792   1.417       .  A
C791       C1266   1.488       .  S
C792       C1159   1.485       .  S
C793        C794   1.404       .  A
C793        H798   1.084       .  S
C794        C795   1.415       .  A
C794       C1146   1.488       .  S
C795        C796   1.406       .  A
C795       C1242   1.482       .  S
C796       H2171   1.084       .  S
H797       C2170   1.084       .  S
C799        C800   1.403   1_545  A
C799        C804   1.401       .  A
C800        C801   1.397       .  A
C800        H813   1.083       .  S
C801        H814   1.083       .  S
C802        C803   1.410       .  A
C802        C805   1.488       .  S
C803        H815   1.080       .  S
C804        H816   1.083       .  S
C805        C806   1.347       .  D
C805        H817   1.086       .  S
C806        C807   1.484       .  S
C806        H818   1.084       .  S
C807        C808   1.403       .  A
C807        C812   1.408       .  A
C808        C809   1.397       .  A
C808        H819   1.083       .  S
C809        C810   1.403       .  A
C809        H820   1.083       .  S
C810        C811   1.402       .  A
C811        C812   1.399       .  A
C812        H822   1.082       .  S
C823        C824   1.405       .  A
C824        C825   1.397       .  A
C824        H837   1.083       .  S
C825        C826   1.401       .  A
C825        H838   1.083       .  S
C826        C829   1.481       .  S
C827        C828   1.402       .  A
C827        H839   1.083       .  S
C828        H840   1.083       .  S
C829        C830   1.344       .  D
C829        H841   1.087       .  S
C830        C831   1.483       .  S
C831        C836   1.406       .  A
C832        C833   1.399   1_545  A
C832        H843   1.083   1_545  S
C833        C834   1.407   1_565  A
C833        H844   1.083       .  S
C835        C836   1.399       .  A
C835        H845   1.083       .  S
C836        H846   1.083       .  S
C847        C848   1.406       .  A
C847        C852   1.405   1_545  A
C848        C849   1.397       .  A
C849        C850   1.402       .  A
C849        H862   1.083       .  S
C850        C851   1.406   1_545  A
C850        C853   1.481       .  S
C851        C852   1.398       .  A
C851        H863   1.082       .  S
C852        H864   1.083       .  S
C853        C854   1.345   1_545  D
C853        H865   1.086       .  S
C854        C855   1.482       .  S
C854        H866   1.086       .  S
C855        C856   1.403   1_565  A
C855        C860   1.406       .  A
C856        H867   1.083       .  S
C857        C858   1.405       .  A
C857        H868   1.083       .  S
C858        C859   1.404       .  A
C859        H869   1.083       .  S
C860        H870   1.082       .  S
C871        C872   1.405       .  A
C871        C876   1.405       .  A
C872        C873   1.400       .  A
C872        H885   1.083       .  S
C873        C874   1.403       .  A
C873        H886   1.083       .  S
C874        C875   1.405       .  A
C874        C877   1.482       .  S
C875        C876   1.397       .  A
C875        H887   1.083       .  S
C876        H888   1.083       .  S
C877        C878   1.345       .  D
C877        H889   1.087       .  S
C878        C879   1.481       .  S
C878        H890   1.086       .  S
C879        C880   1.402       .  A
C879        C884   1.405       .  A
C880        H891   1.083       .  S
C881        C882   1.406   1_565  A
C881        H892   1.083       .  S
C883        C884   1.398       .  A
C883        H893   1.083       .  S
C884        H894   1.083       .  S
C895        C896   1.405       .  A
C895        C900   1.404       .  A
C896        C897   1.401       .  A
C896        H909   1.083       .  S
C897        C898   1.404       .  A
C897        H910   1.083       .  S
C898        C899   1.405       .  A
C898        C901   1.482       .  S
C899        C900   1.393       .  A
C899        H911   1.082       .  S
C900        H912   1.083       .  S
C901        C902   1.346       .  D
C901        H913   1.086       .  S
C902        C903   1.480       .  S
C902        H914   1.086       .  S
C903        C904   1.402       .  A
C903        C908   1.407       .  A
C904        C905   1.395       .  A
C904        H915   1.083       .  S
C905        C906   1.403       .  A
C905        H916   1.083       .  S
C906        C907   1.403       .  A
C907        C908   1.399       .  A
C907        H917   1.083       .  S
C908        H918   1.082       .  S
C919        C920   1.404       .  A
C919        C924   1.402       .  A
C920        C921   1.395       .  A
C920        H933   1.083       .  S
C921        C922   1.402       .  A
C921        H934   1.083       .  S
C922        C923   1.408       .  A
C922        C925   1.481       .  S
C923        C924   1.399       .  A
C923        H935   1.082       .  S
C924        H936   1.083       .  S
C925        C926   1.346       .  D
C925        H937   1.086       .  S
C926        C927   1.483       .  S
C926        H938   1.086       .  S
C927        C928   1.404       .  A
C927        C932   1.405       .  A
C928        C929   1.400       .  A
C928        H939   1.083       .  S
C929        C930   1.405       .  A
C929        H940   1.083       .  S
C930        C931   1.406       .  A
C931        C932   1.396       .  A
C931        H941   1.083       .  S
C932        H942   1.082       .  S
C943        C944   1.404       .  A
C943        C948   1.405       .  A
C944        C945   1.398       .  A
C944        H957   1.083       .  S
C945        C946   1.405       .  A
C945        H958   1.083       .  S
C946        C947   1.410       .  A
C946        C949   1.493       .  S
C947        C948   1.401       .  A
C947        H959   1.081       .  S
C948        H960   1.083       .  S
C949        C950   1.350       .  D
C949        H961   1.083       .  S
C950        C951   1.495       .  S
C950        H962   1.084       .  S
C951        C952   1.405       .  A
C951        C956   1.412       .  A
C952        C953   1.398       .  A
C952        H963   1.083       .  S
C953        C954   1.404       .  A
C953        H964   1.083       .  S
C954        C955   1.403       .  A
C955        C956   1.401       .  A
C955        H965   1.083       .  S
C956        H966   1.080       .  S
C967        C968   1.403       .  A
C967        C972   1.405       .  A
C968        C969   1.398       .  A
C968        H981   1.083       .  S
C969        C970   1.405       .  A
C969        H982   1.083       .  S
C970        C971   1.409       .  A
C970        C973   1.490       .  S
C971        C972   1.399       .  A
C971        H983   1.080       .  S
C972        H984   1.083       .  S
C973        C974   1.349       .  D
C973        H985   1.085       .  S
C974        C975   1.488       .  S
C974        H986   1.084       .  S
C975        C976   1.404       .  A
C975        C980   1.409       .  A
C976        C977   1.398       .  A
C976        H987   1.083       .  S
C977        C978   1.404       .  A
C977        H988   1.083       .  S
C978        C979   1.405       .  A
C979        C980   1.399       .  A
C979        H989   1.083       .  S
C980        H990   1.081       .  S
C991        C992   1.403       .  A
C991        C996   1.404       .  A
C992        C993   1.397       .  A
C992       H1005   1.083       .  S
C993        C994   1.404       .  A
C993       H1006   1.083       .  S
C994        C997   1.493       .  S
C995       H1007   1.080       .  S
C997       H1009   1.085       .  S
C998        C999   1.493       .  S
C998       H1010   1.084       .  S
C999       C1000   1.404       .  A
C1000      C1001   1.399   1_556  A
C1000      H1011   1.083   1_556  S
C1001      H1012   1.083       .  S
C1002      C1003   1.402       .  A
C1003      C1004   1.401       .  A
C1003      H1013   1.083       .  S
C1004      H1014   1.081       .  S
C1015      C1020   1.403       .  A
C1016      C1017   1.399   1_554  A
C1016      H1029   1.083       .  S
C1017      H1030   1.083   1_556  S
C1018      C1019   1.408       .  A
C1018      C1021   1.488       .  S
C1019      C1020   1.399       .  A
C1019      H1031   1.082       .  S
C1020      H1032   1.083       .  S
C1021      C1022   1.349       .  D
C1022      C1023   1.492       .  S
C1022      H1034   1.086       .  S
C1023      C1024   1.405       .  A
C1023      C1028   1.411       .  A
C1024      C1025   1.397       .  A
C1024      H1035   1.083       .  S
C1025      C1026   1.403       .  A
C1025      H1036   1.083       .  S
C1026      C1027   1.403       .  A
C1027      C1028   1.401       .  A
C1039      C1040   1.404       .  A
C1040      C1041   1.395       .  A
C1040      H1053   1.083       .  S
C1041      C1042   1.403       .  A
C1041      H1054   1.084       .  S
C1042      C1045   1.486       .  S
C1043      C1044   1.403       .  A
C1043      H1055   1.081       .  S
C1044      H1056   1.083       .  S
C1045      H1057   1.086       .  S
C1046      C1047   1.487       .  S
C1046      H1058   1.085       .  S
C1047      C1048   1.404       .  A
C1048      C1049   1.400       .  A
C1048      H1059   1.083       .  S
C1049      H1060   1.083       .  S
C1050      C1051   1.403       .  A
C1051      C1052   1.395       .  A
C1051      H1061   1.083       .  S
C1052      H1062   1.082       .  S
C1063      C1068   1.404       .  A
C1064      C1065   1.396       .  A
C1064      H1077   1.083       .  S
C1065      C1066   1.404       .  A
C1065      H1078   1.083       .  S
C1066      C1067   1.413       .  A
C1066      C1069   1.495       .  S
C1067      H1079   1.079       .  S
C1068      H1080   1.083       .  S
C1069      C1070   1.349       .  D
C1069      H1081   1.083       .  S
C1070      C1071   1.493       .  S
C1070      H1082   1.082       .  S
C1071      C1072   1.404       .  A
C1071      C1076   1.412       .  A
C1072      C1073   1.396       .  A
C1072      H1083   1.083       .  S
C1073      C1074   1.402       .  A
C1073      H1084   1.083       .  S
C1074      C1075   1.403       .  A
C1075      C1076   1.401       .  A
C1075      H1085   1.083       .  S
C1076      H1086   1.080       .  S
C1087      C1088   1.404       .  A
C1087      C1092   1.405       .  A
C1088      C1089   1.401       .  A
C1088      H2475   1.083       .  S
C1089      C1090   1.406       .  A
C1089      H2476   1.083       .  S
C1090      C1091   1.407       .  A
C1090      C1093   1.489       .  S
C1091      C1092   1.397       .  A
C1091      H1103   1.081       .  S
C1092      H1104   1.083       .  S
C1093      C1094   1.350       .  D
C1093      H1105   1.083       .  S
C1094      C1095   1.491       .  S
C1094      H1106   1.084       .  S
C1095      C1096   1.406       .  A
C1095      C1100   1.410       .  A
C1096      C1097   1.398       .  A
C1096      H1107   1.083       .  S
C1097      C1098   1.402       .  A
C1097      H1108   1.083       .  S
C1098      C1099   1.402       .  A
C1099      C1100   1.398       .  A
C1099      H2483   1.083       .  S
C1100      H1110   1.080       .  S
H1101      C2462   1.083       .  S
H1102      C2463   1.083       .  S
H1109      C2473   1.083       .  S
C1111      C1112   1.405       .  A
C1111      C2490   1.406       .  A
C1112      C1113   1.398       .  A
C1112      H1125   1.083       .  S
C1113      C1114   1.404       .  A
C1113      H1126   1.083       .  S
C1114      C1115   1.410       .  A
C1114      C1117   1.492       .  S
C1115      C2490   1.402       .  A
C1115      H2501   1.081       .  S
C1116      C2485   1.406   1_455  A
C1116      C2489   1.402       .  A
C1116      H1128   1.083       .  S
C1117      C1118   1.348       .  D
C1117      H1129   1.085       .  S
C1118      C1119   1.491       .  S
C1118      H2504   1.085       .  S
C1119      C2494   1.402       .  A
C1119      C1124   1.411       .  A
C1120      C2493   1.402   1_455  A
C1120      C1121   1.397       .  A
C1120      H1131   1.083       .  S
C1121      C2496   1.406   1_455  A
C1121      H1132   1.083       .  S
C1122      C2495   1.406       .  A
C1122      C1123   1.405       .  A
C1123      C1124   1.404       .  A
C1123      H1133   1.083       .  S
C1124      H1134   1.081       .  S
H1127      C2489   1.081       .  S
H1130      C2492   1.085       .  S
C1135      C1136   1.404       .  A
C1135      C1140   1.405       .  A
C1136      C1137   1.402       .  A
C1136      H1149   1.083       .  S
C1137      C1138   1.406       .  A
C1137      H1150   1.083       .  S
C1138      C2513   1.409       .  A
C1138      C1141   1.494       .  S
C1139      C2512   1.409       .  A
C1139      C2514   1.400   1_655  A
C1139      H1151   1.081   1_655  S
C1140      C2513   1.400       .  A
C1140      H2526   1.083       .  S
C1141      C1142   1.349       .  D
C1141      H1153   1.086       .  S
C1142      C1143   1.491       .  S
C1142      H2528   1.085       .  S
C1143      C2518   1.404       .  A
C1143      C1148   1.410       .  A
C1144      C2517   1.404   1_455  A
C1144      C1145   1.397       .  A
C1144      H1155   1.083       .  S
C1145      C2520   1.403   1_455  A
C1145      H1156   1.083       .  S
C1146      C2519   1.403       .  A
C1146      C1147   1.404       .  A
C1147      C1148   1.405       .  A
C1147      H1157   1.083       .  S
C1148      H1158   1.082       .  S
H1152      C2514   1.083       .  S
H1154      C2516   1.085   1_455  S
C1159      C1160   1.404       .  A
C1159      C2538   1.402       .  A
C1160      C1161   1.397       .  A
C1160      H1173   1.083       .  S
C1161      C1162   1.403       .  A
C1161      H1174   1.083       .  S
C1162      C1163   1.410       .  A
C1162      C1165   1.489       .  S
C1163      C2538   1.401       .  A
C1163      H2549   1.081       .  S
C1164      C2533   1.402       .  A
C1164      C2537   1.401       .  A
C1164      H1176   1.083   1_655  S
C1165      C1166   1.349       .  D
C1165      H1177   1.083       .  S
C1166      C1167   1.492       .  S
C1166      H1178   1.085       .  S
C1167      C1168   1.405       .  A
C1167      C1172   1.412       .  A
C1168      C1169   1.397       .  A
C1168      H1179   1.083       .  S
C1169      C1170   1.402       .  A
C1169      H1180   1.083       .  S
C1170      C1171   1.402       .  A
C1171      C1172   1.401       .  A
C1171      H1181   1.083       .  S
C1172      H1182   1.080       .  S
H1175      C2537   1.081   1_455  S
C1183      C2558   1.403       .  A
C1183      C1188   1.402       .  A
C1183      C2070   1.482       .  S
C1184      C2557   1.403       .  A
C1184      C1185   1.397       .  A
C1184      H1197   1.083       .  S
C1185      C1186   1.403       .  A
C1185      H1198   1.083       .  S
C1186      C2561   1.410   1_455  A
C1186      C1189   1.487       .  S
C1187      C2560   1.410       .  A
C1187      C1188   1.398       .  A
C1187      H1199   1.081       .  S
C1188      H1200   1.083       .  S
C1189      C2564   1.347   1_455  D
C1189      H1201   1.085       .  S
C1190      C1191   1.485       .  S
C1190      C2563   1.347       .  D
C1190      H1202   1.085       .  S
C1191      C1192   1.402       .  A
C1191      C2570   1.409       .  A
C1192      C1193   1.394       .  A
C1192      H1203   1.084       .  S
C1193      C1194   1.405       .  A
C1193      H1204   1.083       .  S
C1194      C2569   1.405       .  A
C1195      C2568   1.405   1_455  A
C1195      C1196   1.401       .  A
C1195      H1205   1.083       .  S
C1196      C2565   1.409   1_455  A
C1196      H1206   1.081       .  S
C1207      C1208   1.404       .  A
C1207      C2586   1.405       .  A
C1208      C1209   1.400       .  A
C1208      H1221   1.083       .  S
C1209      C1210   1.405       .  A
C1209      H1222   1.083       .  S
C1210      C2585   1.407       .  A
C1210      C1213   1.488       .  S
C1211      C2584   1.407   1_455  A
C1211      C1212   1.397       .  A
C1211      H1223   1.081       .  S
C1212      C2581   1.405   1_455  A
C1212      H1224   1.083       .  S
C1213      C2588   1.348       .  D
C1213      H1225   1.086       .  S
C1214      C1215   1.486       .  S
C1214      C2587   1.348   1_455  D
C1214      H1226   1.085       .  S
C1215      C1216   1.404       .  A
C1215      C2594   1.408   1_455  A
C1216      C1217   1.398       .  A
C1216      H1227   1.083       .  S
C1217      C1218   1.404       .  A
C1217      H1228   1.083       .  S
C1218      C2593   1.405   1_455  A
C1219      C2592   1.405       .  A
C1219      C1220   1.399       .  A
C1219      H1229   1.083       .  S
C1220      C2589   1.408       .  A
C1220      H1230   1.082       .  S
C1231      C2606   1.404       .  A
C1231      C1236   1.403       .  A
C1231      C2073   1.485       .  S
C1232      C2605   1.404   1_455  A
C1232      C1233   1.396       .  A
C1232      H1245   1.083       .  S
C1233      C1234   1.403   1_455  A
C1233      H1246   1.083       .  S
C1234      C2609   1.411       .  A
C1234      C1237   1.490   1_655  S
C1235      C2608   1.411       .  A
C1235      C1236   1.401       .  A
C1235      H1247   1.081       .  S
C1236      H1248   1.083       .  S
C1237      C2612   1.347   1_455  D
C1237      H1249   1.084       .  S
C1238      C1239   1.489       .  S
C1238      C2611   1.347       .  D
C1238      H1250   1.084       .  S
C1239      C1240   1.403       .  A
C1239      C2618   1.411       .  A
C1240      C1241   1.396       .  A
C1240      H1251   1.083       .  S
C1241      C1242   1.402       .  A
C1241      H1252   1.083       .  S
C1242      C2617   1.402       .  A
C1243      C2616   1.402   1_455  A
C1243      C1244   1.401       .  A
C1243      H1253   1.083       .  S
C1244      C2613   1.411   1_455  A
C1244      H1254   1.081       .  S
C1255      C1256   1.404       .  A
C1255      C2634   1.405       .  A
C1255      C2071   1.488       .  S
C1256      C1257   1.401       .  A
C1256      H1269   1.083       .  S
C1257      C1258   1.406       .  A
C1257      H1270   1.083       .  S
C1258      C2633   1.409       .  A
C1258      C1261   1.492       .  S
C1259      C2632   1.409   1_455  A
C1259      C1260   1.400       .  A
C1259      H1271   1.082       .  S
C1260      C2629   1.405   1_455  A
C1260      H1272   1.083       .  S
C1261      C2636   1.349       .  D
C1261      H1273   1.086       .  S
C1262      C1263   1.490   1_455  S
C1262      C2635   1.349   1_455  D
C1262      H1274   1.086       .  S
C1263      C1264   1.404   1_655  A
C1263      C2642   1.410       .  A
C1264      C1265   1.399       .  A
C1264      H1275   1.083       .  S
C1265      C2640   1.404   1_455  A
C1265      H1276   1.083       .  S
C1266      C2639   1.404       .  A
C1266      C1267   1.404       .  A
C1267      C1268   1.403       .  A
C1267      H1277   1.083       .  S
C1268      C2637   1.410       .  A
C1268      H1278   1.082       .  S
C1279      C1280   1.405       .  A
C1279      C1284   1.403       .  A
C1280      C1281   1.396       .  A
C1280      H1293   1.083       .  S
C1281      C1282   1.400       .  A
C1281      H1294   1.083       .  S
C1282      C1283   1.407       .  A
C1282      C1285   1.478       .  S
C1283      C1284   1.399       .  A
C1283      H1295   1.083       .  S
C1284      H1296   1.083       .  S
C1285      C1286   1.342       .  D
C1285      H1297   1.087       .  S
C1286      C1287   1.478       .  S
C1286      H1298   1.087       .  S
C1287      C1288   1.400       .  A
C1287      C1292   1.407       .  A
C1288      C1289   1.393       .  A
C1288      H1299   1.084       .  S
C1289      C1290   1.405       .  A
C1289      H1300   1.083       .  S
C1290      C1291   1.406       .  A
C1291      C1292   1.400       .  A
C1291      H1301   1.083       .  S
C1292      H1302   1.083       .  S
C1303      C1304   1.405       .  A
C1303      C1308   1.404       .  A
C1304      C1305   1.397       .  A
C1304      H1317   1.083       .  S
C1305      C1306   1.400       .  A
C1305      H1318   1.083       .  S
C1306      C1307   1.406       .  A
C1306      C1309   1.479       .  S
C1307      C1308   1.400       .  A
C1307      H1319   1.083       .  S
C1308      H1320   1.083       .  S
C1309      C1310   1.342       .  D
C1309      H1321   1.087       .  S
C1310      C1311   1.479       .  S
C1310      H1322   1.087       .  S
C1311      C1312   1.401       .  A
C1311      C1316   1.407       .  A
C1312      C1313   1.394       .  A
C1312      H1323   1.084       .  S
C1313      C1314   1.404       .  A
C1313      H1324   1.083       .  S
C1314      C1315   1.406       .  A
C1315      C1316   1.400       .  A
C1315      H1325   1.083       .  S
C1316      H1326   1.083       .  S
C1327      C1328   1.403       .  A
C1327      C1332   1.403       .  A
C1328      C1329   1.399       .  A
C1328      H1341   1.083       .  S
C1329      C1330   1.405       .  A
C1329      H1342   1.083       .  S
C1330      C1331   1.410       .  A
C1330      C1333   1.490       .  S
C1331      C1332   1.398       .  A
C1331      H1343   1.080       .  S
C1332      H1344   1.083       .  S
C1333      C1334   1.349       .  D
C1333      H1345   1.085       .  S
C1334      C1335   1.487       .  S
C1334      H1346   1.084       .  S
C1335      C1336   1.405       .  A
C1335      C1340   1.408       .  A
C1336      C1337   1.398       .  A
C1336      H1347   1.083       .  S
C1337      C1338   1.402       .  A
C1337      H1348   1.083       .  S
C1338      C1339   1.404       .  A
C1339      C1340   1.399       .  A
C1339      H1349   1.083       .  S
C1340      H1350   1.081       .  S
C1351      C1352   1.404       .  A
C1351      C1356   1.403       .  A
C1352      C1353   1.399       .  A
C1352      H1365   1.083       .  S
C1353      C1354   1.404       .  A
C1353      H1366   1.084       .  S
C1354      C1355   1.408       .  A
C1354      C1357   1.488       .  S
C1355      C1356   1.398       .  A
C1355      H1367   1.081       .  S
C1356      H1368   1.083       .  S
C1357      C1358   1.349       .  D
C1357      H1369   1.084       .  S
C1358      C1359   1.488       .  S
C1358      H1370   1.085       .  S
C1359      C1360   1.404       .  A
C1359      C1364   1.410       .  A
C1360      C1361   1.396       .  A
C1360      H1371   1.084       .  S
C1361      C1362   1.403       .  A
C1361      H1372   1.083       .  S
C1362      C1363   1.402       .  A
C1363      C1364   1.399       .  A
C1363      H1373   1.083       .  S
C1364      H1374   1.080       .  S
C1375      C1376   1.415       .  A
C1375      C1380   1.407       .  A
C1375      C2049   1.483       .  S
C1376      C1377   1.399       .  A
C1376      C2001   1.486       .  S
C1377      C1378   1.401       .  A
C1377      H1382   1.085       .  S
C1378      C1379   1.417       .  A
C1378      C1977   1.486       .  S
C1379      C1380   1.408       .  A
C1379      C2014   1.484       .  S
C1380      H1381   1.084       .  S
C1383      C1384   1.417       .  A
C1383      C1388   1.401       .  A
C1384      C1385   1.409       .  A
C1385      C1386   1.409       .  A
C1385      H1390   1.084       .  S
C1386      C1387   1.415       .  A
C1387      C1388   1.399       .  A
C1387      C1905   1.486       .  S
C1388      H1389   1.085       .  S
O1391      C1394   1.269       .  A
C1392      C1881   1.479       .  S
C1392      O1401   1.263       .  A
O1393      C1399   1.267       .  A
O1393     Cd1396   2.488       .  S
C1394      C1966   1.475       .  S
C1394      O1402   1.264       .  A
C1395      C1990   1.474       .  S
C1395      O1400   1.268       .  A
C1395      O1398   1.265       .  A
Cd1396     O2088   2.437   1_545  S
Cd1396     O2087   2.476   1_545  S
Cd1396     O2085   2.439   1_545  S
O1398     Cd2083   2.441       .  S
C1399      C1894   1.479       .  S
O1400     Cd2083   2.476       .  S
O1401     Cd2083   2.439       .  S
C1404      C1405   1.417       .  A
C1404      C1409   1.409       .  A
C1404      C1857   1.484       .  S
C1405      C1406   1.403       .  A
C1405      C1798   1.492       .  S
C1406      C1407   1.404       .  A
C1406      H1411   1.084       .  S
C1407      C1408   1.417       .  A
C1407      C1785   1.482       .  S
C1408      C1409   1.408       .  A
C1408      C1822   1.492       .  S
C1409      H1410   1.084       .  S
C1413      C1750   1.482       .  S
C1413      O2105   1.270       .  A
O1414      C2107   1.270       .  A
O1414     Cd1417   2.489       .  S
C1415      C1774   1.482       .  S
C1415      O1423   1.265   1_455  A
C1416      C1809   1.483       .  S
C1416      O1421   1.270       .  A
Cd1417     O2111   2.436       .  S
Cd1417     O2110   2.440       .  S
Cd1417     O1422   2.440   1_655  S
Cd1417     O1421   2.501       .  S
O1418      C2100   1.270       .  A
C1420      C1726   1.481       .  S
C1420      O2101   1.269   1_545  A
C1420      O1424   1.265       .  A
O1423     Cd2104   2.443       .  S
O1424     Cd2104   2.438       .  S
C1425      C1426   1.417       .  A
C1425      C1430   1.410       .  A
C1425      C1713   1.486       .  S
C1426      C1427   1.400       .  A
C1426      C1761   1.484       .  S
C1427      C1428   1.402       .  A
C1427      H1432   1.085       .  S
C1428      C1429   1.417       .  A
C1428      C1737   1.486       .  S
C1429      C1430   1.409       .  A
C1429      C1678   1.488       .  S
C1430      H1431   1.084       .  S
C1433      C1434   1.415       .  A
C1433      C1438   1.409       .  A
C1433      C1665   1.487       .  S
C1434      C1435   1.398       .  A
C1434      C1593   1.479       .  S
C1435      C1436   1.399       .  A
C1435      H1440   1.085       .  S
C1436      C1437   1.417       .  A
C1436      C1606   1.480       .  S
C1437      C1438   1.408       .  A
C1437      C1630   1.490       .  S
C1438      H1439   1.084       .  S
C1441      C1442   1.419       .  A
C1441      C2133   1.405       .  A
C1441      C2038   1.488       .  S
C1442      C2130   1.408       .  A
C1442      C1654   1.489       .  S
C1443      C2129   1.408   1_545  A
C1443      H1448   1.084       .  S
C1444      C1445   1.415       .  A
C1444      C1641   1.488       .  S
C1445      C2025   1.483       .  S
C1446      C2128   1.404   1_545  A
C1446      H1447   1.084       .  S
O1449      C1452   1.266       .  A
O1449     Cd2141   2.489       .  S
C1450      C1558   1.477       .  S
C1450      O1459   1.266   1_565  A
C1450      O2142   1.267       .  A
O1451      C1457   1.266   1_545  A
O1451     Cd1454   2.482   1_545  S
C1452      C1582   1.476       .  S
C1452      O1460   1.263       .  A
C1453      C1617   1.479       .  S
C1453      O1458   1.267       .  A
C1453      O1456   1.263       .  A
Cd1454     O2136   2.488       .  S
Cd1454     O2148   2.454       .  S
Cd1454     O2147   2.428       .  S
O1455      C2137   1.267       .  A
C1457      C1545   1.477       .  S
C1457      O2148   1.264       .  A
O1460     Cd2141   2.431       .  S
O1461      C2144   1.264       .  A
O1461     Cd2141   2.455       .  S
C1462      C1463   1.422       .  A
C1462      C1467   1.407       .  A
C1462      C1521   1.492       .  S
C1463      C1464   1.406       .  A
C1463      C1569   1.490       .  S
C1464      C1465   1.403       .  A
C1464      H1469   1.084       .  S
C1465      C1466   1.414       .  A
C1465      C1534   1.489       .  S
C1466      C1467   1.402       .  A
C1466      C1486   1.483       .  S
C1467      H1468   1.084       .  S
C1470      C1471   1.421       .  A
C1470      C1702   1.487   1_544  S
C1471      C1510   1.493       .  S
C1472      C1473   1.401       .  A
C1472      H1477   1.084       .  S
C1473      C1474   1.414       .  A
C1473      C1497   1.481       .  S
C1474      C1475   1.406   1_545  A
C1474      C1689   1.489   1_544  S
C1475      H1476   1.084   1_554  S
C1478      C1479   1.417       .  A
C1478      C2170   1.405       .  A
C1478      C1953   1.488       .  S
C1479      C2167   1.407       .  A
C1479      C1846   1.484       .  S
C1480      C2166   1.408   1_545  A
C1480      C1481   1.406       .  A
C1480      H1485   1.084       .  S
C1481      C1482   1.416       .  A
C1481      C1833   1.490       .  S
C1482      C1483   1.405       .  A
C1482      C1929   1.482       .  S
C1483      C2165   1.404   1_545  A
C1486      C1487   1.403       .  A
C1486      C1491   1.402       .  A
C1487      C1488   1.396       .  A
C1487      H1500   1.083       .  S
C1488      C2176   1.404       .  A
C1488      H1501   1.083       .  S
C1489      C2175   1.404   1_545  A
C1489      C1490   1.411       .  A
C1489      C1492   1.489   1_545  S
C1490      C2178   1.398       .  A
C1490      H1502   1.080       .  S
C1491      C2177   1.399       .  A
C1491      H1503   1.083       .  S
C1492      C1493   1.347   1_565  D
C1492      H1504   1.086       .  S
C1493      C1494   1.484       .  S
C1493      H1505   1.083       .  S
C1494      C1495   1.403       .  A
C1494      C1499   1.408   1_545  A
C1495      C1496   1.397       .  A
C1495      H1506   1.083       .  S
C1496      C1497   1.403       .  A
C1496      H1507   1.083       .  S
C1497      C1498   1.403   1_545  A
C1498      C1499   1.399       .  A
C1498      H2195   1.083       .  S
C1499      H1509   1.082       .  S
H1508      C2185   1.083       .  S
C1510      C1511   1.405   1_545  A
C1510      C2202   1.408       .  A
C1511      C1512   1.397   1_565  A
C1511      H1524   1.083       .  S
C1512      C1513   1.401       .  A
C1512      H1525   1.083   1_545  S
C1513      C2201   1.406       .  A
C1513      C1516   1.482       .  S
C1514      C2200   1.405       .  A
C1514      C1515   1.401       .  A
C1514      H1526   1.083       .  S
C1515      C2197   1.408       .  A
C1515      H1527   1.083       .  S
C1516      C1517   1.345       .  D
C1516      H1528   1.087       .  S
C1517      C1518   1.484       .  S
C1517      H2216   1.087       .  S
C1518      C2206   1.402       .  A
C1518      C1523   1.406       .  A
C1519      C2205   1.402       .  A
C1519      C1520   1.398       .  A
C1519      H1530   1.083       .  S
C1520      C1521   1.407       .  A
C1520      H1531   1.083       .  S
C1521      C2209   1.407       .  A
C1522      C2208   1.407       .  A
C1522      C1523   1.400       .  A
C1522      H1532   1.083       .  S
C1523      H1533   1.083       .  S
H1529      C2204   1.087       .  S
C1534      C1535   1.406       .  A
C1534      C1539   1.405       .  A
C1535      C1536   1.397       .  A
C1535      H2235   1.083       .  S
C1536      C1537   1.402       .  A
C1536      H1549   1.083       .  S
C1537      C1538   1.406       .  A
C1537      C1540   1.481       .  S
C1538      C1539   1.397       .  A
C1538      H1550   1.082       .  S
C1539      H1551   1.083       .  S
C1540      C1541   1.346       .  D
C1540      H1552   1.086       .  S
C1541      C1542   1.482       .  S
C1541      H1553   1.086       .  S
C1542      C1543   1.403       .  A
C1542      C1547   1.406       .  A
C1543      C2231   1.399       .  A
C1543      H1554   1.083       .  S
C1544      C2230   1.399       .  A
C1544      C1545   1.405   1_545  A
C1544      H1555   1.083       .  S
C1545      C1546   1.404       .  A
C1546      C2234   1.397       .  A
C1546      H1556   1.083       .  S
C1547      C2233   1.397       .  A
C1547      H1557   1.082       .  S
H1548      C2222   1.083       .  S
C1558      C1559   1.405       .  A
C1558      C1563   1.404       .  A
C1559      C1560   1.400       .  A
C1559      H1572   1.083       .  S
C1560      C1561   1.403       .  A
C1560      H1573   1.083       .  S
C1561      C1562   1.405       .  A
C1561      C1564   1.481       .  S
C1562      C1563   1.397       .  A
C1562      H1574   1.083   1_565  S
C1563      H1575   1.083   1_565  S
C1564      C1565   1.345       .  D
C1564      H1576   1.087       .  S
C1565      C1566   1.481       .  S
C1565      H1577   1.086       .  S
C1566      C1567   1.402       .  A
C1566      C1571   1.405   1_565  A
C1567      C2255   1.399       .  A
C1567      H1578   1.083       .  S
C1568      C2254   1.399       .  A
C1568      C1569   1.406       .  A
C1568      H1579   1.083       .  S
C1569      C2257   1.406       .  A
C1570      C2256   1.406       .  A
C1570      C1571   1.397       .  A
C1570      H1580   1.083       .  S
C1571      H1581   1.083       .  S
C1582      C1583   1.405       .  A
C1582      C1587   1.404       .  A
C1583      C1584   1.401       .  A
C1583      H1596   1.083       .  S
C1584      C1585   1.404       .  A
C1584      H1597   1.083       .  S
C1585      C1586   1.405       .  A
C1585      C1588   1.483       .  S
C1586      C1587   1.393       .  A
C1586      H1598   1.082       .  S
C1587      H1599   1.083       .  S
C1588      C1589   1.346       .  D
C1588      H1600   1.086       .  S
C1589      C1590   1.481       .  S
C1589      H1601   1.086       .  S
C1590      C1591   1.402       .  A
C1590      C1595   1.408       .  A
C1591      C1592   1.395       .  A
C1591      H1602   1.083       .  S
C1592      C1593   1.403       .  A
C1592      H1603   1.083       .  S
C1593      C1594   1.403       .  A
C1594      C1595   1.400       .  A
C1594      H1604   1.083       .  S
C1595      H1605   1.082       .  S
C1606      C1607   1.403       .  A
C1606      C1611   1.403       .  A
C1607      C1608   1.395       .  A
C1607      H1620   1.083       .  S
C1608      C1609   1.402       .  A
C1608      H1621   1.083       .  S
C1609      C1610   1.408       .  A
C1609      C1612   1.481       .  S
C1610      C1611   1.399       .  A
C1610      H1622   1.082       .  S
C1611      H1623   1.083       .  S
C1612      C1613   1.345       .  D
C1612      H1624   1.086       .  S
C1613      C1614   1.482       .  S
C1613      H1625   1.086       .  S
C1614      C1615   1.403       .  A
C1614      C1619   1.405       .  A
C1615      C1616   1.400       .  A
C1615      H1626   1.083       .  S
C1616      C1617   1.405       .  A
C1616      H1627   1.083       .  S
C1617      C1618   1.405       .  A
C1618      C1619   1.396       .  A
C1618      H1628   1.083       .  S
C1619      H1629   1.082       .  S
C1630      C1631   1.404       .  A
C1630      C1635   1.405       .  A
C1631      C1632   1.398       .  A
C1631      H1644   1.083       .  S
C1632      C1633   1.405       .  A
C1632      H1645   1.083       .  S
C1633      C1634   1.410       .  A
C1633      C1636   1.492       .  S
C1634      C1635   1.401       .  A
C1634      H1646   1.081       .  S
C1635      H1647   1.083       .  S
C1636      C1637   1.350       .  D
C1636      H1648   1.083       .  S
C1637      C1638   1.494       .  S
C1637      H1649   1.084       .  S
C1638      C1639   1.405       .  A
C1638      C1643   1.411       .  A
C1639      C1640   1.398       .  A
C1639      H1650   1.083       .  S
C1640      C1641   1.404       .  A
C1640      H1651   1.083       .  S
C1641      C1642   1.403       .  A
C1642      C1643   1.401       .  A
C1642      H1652   1.083       .  S
C1643      H1653   1.080       .  S
C1654      C1655   1.403       .  A
C1654      C1659   1.405       .  A
C1655      C1656   1.398       .  A
C1655      H1668   1.083       .  S
C1656      C1657   1.405       .  A
C1656      H1669   1.083       .  S
C1657      C1658   1.409       .  A
C1657      C1660   1.490       .  S
C1658      C1659   1.399       .  A
C1658      H1670   1.080       .  S
C1659      H1671   1.083       .  S
C1660      C1661   1.349       .  D
C1660      H1672   1.085       .  S
C1661      C1662   1.488       .  S
C1661      H1673   1.084       .  S
C1662      C1663   1.404       .  A
C1662      C1667   1.408       .  A
C1663      C1664   1.398       .  A
C1663      H1674   1.083       .  S
C1664      C1665   1.404       .  A
C1664      H1675   1.083       .  S
C1665      C1666   1.405       .  A
C1666      C1667   1.399       .  A
C1666      H1676   1.083       .  S
C1667      H1677   1.081       .  S
C1678      C1679   1.403       .  A
C1678      C1683   1.404   1_545  A
C1679      C1680   1.397       .  A
C1679      H1692   1.083       .  S
C1680      C1681   1.405       .  A
C1680      H1693   1.083       .  S
C1681      C2369   1.411   1_545  A
C1681      C1684   1.494       .  S
C1682      C2368   1.411       .  A
C1682      C2370   1.404       .  A
C1682      H1694   1.080       .  S
C1683      C2369   1.404       .  A
C1683      H2382   1.083       .  S
C1684      C2372   1.350   1_545  D
C1684      H1696   1.085       .  S
C1685      C1686   1.491       .  S
C1685      C2371   1.349       .  D
C1685      H1697   1.084       .  S
C1686      C1687   1.404       .  A
C1686      C2378   1.410       .  A
C1687      C1688   1.399   1_556  A
C1687      H1698   1.083   1_556  S
C1688      C2376   1.405   1_554  A
C1688      H1699   1.083       .  S
C1689      C2375   1.405   1_556  A
C1689      C1690   1.402   1_565  A
C1690      C1691   1.401       .  A
C1690      H1700   1.083       .  S
C1691      C2373   1.411   1_545  A
C1691      H1701   1.081       .  S
H1695      C2370   1.083       .  S
C1702      C2390   1.405   1_556  A
C1702      C1707   1.403   1_565  A
C1703      C2389   1.405   1_554  A
C1703      C1704   1.399   1_554  A
C1703      H1716   1.083       .  S
C1704      C2392   1.404       .  A
C1704      H1717   1.083   1_556  S
C1705      C2391   1.404       .  A
C1705      C1706   1.409   1_565  A
C1705      C1708   1.489       .  S
C1706      C1707   1.399       .  A
C1706      H1718   1.082       .  S
C1707      H1719   1.083       .  S
C1708      C1709   1.349   1_565  D
C1708      H2407   1.083       .  S
C1709      C1710   1.492       .  S
C1709      H1721   1.086       .  S
C1710      C1711   1.405       .  A
C1710      C1715   1.411   1_545  A
C1711      C1712   1.397       .  A
C1711      H1722   1.083       .  S
C1712      C1713   1.403       .  A
C1712      H1723   1.083       .  S
C1713      C1714   1.403   1_545  A
C1714      C1715   1.402       .  A
C1714      H2411   1.083       .  S
C1715      H2412   1.080       .  S
H1720      C2395   1.083       .  S
H1724      C2401   1.083       .  S
H1725      C2402   1.080       .  S
C1726      C1727   1.405       .  A
C1726      C2418   1.405   1_545  A
C1727      C1728   1.395       .  A
C1727      H1740   1.083       .  S
C1728      C1729   1.402       .  A
C1728      H1741   1.084       .  S
C1729      C2417   1.409   1_545  A
C1729      C1732   1.486       .  S
C1730      C2416   1.409       .  A
C1730      C1731   1.402       .  A
C1730      H1742   1.081       .  S
C1731      C2413   1.405       .  A
C1731      H1743   1.083       .  S
C1732      C2420   1.347   1_545  D
C1732      H1744   1.086       .  S
C1733      C1734   1.487       .  S
C1733      C2419   1.347       .  D
C1733      H1745   1.085       .  S
C1734      C1735   1.404       .  A
C1734      C2426   1.408       .  A
C1735      C1736   1.400       .  A
C1735      H1746   1.083       .  S
C1736      C2424   1.405       .  A
C1736      H1747   1.083       .  S
C1737      C2423   1.405   1_545  A
C1737      C1738   1.403       .  A
C1738      C1739   1.396       .  A
C1738      H1748   1.083       .  S
C1739      C2421   1.408   1_545  A
C1739      H1749   1.082       .  S
C1750      C2438   1.404       .  A
C1750      C1755   1.404       .  A
C1751      C2437   1.404   1_565  A
C1751      C1752   1.396       .  A
C1751      H1764   1.083       .  S
C1752      C1753   1.404   1_565  A
C1752      H1765   1.083       .  S
C1753      C1754   1.412       .  A
C1753      C1756   1.495       .  S
C1754      C2442   1.402       .  A
C1754      H1766   1.079       .  S
C1755      C2441   1.402       .  A
C1755      H1767   1.083       .  S
C1756      C1757   1.349       .  D
C1756      H1768   1.084   1_545  S
C1757      C1758   1.492       .  S
C1757      H1769   1.082       .  S
C1758      C1759   1.404       .  A
C1758      C1763   1.412   1_545  A
C1759      C1760   1.396       .  A
C1759      H1770   1.083       .  S
C1760      C1761   1.403       .  A
C1760      H1771   1.083       .  S
C1761      C1762   1.403   1_545  A
C1762      C1763   1.401       .  A
C1762      H1772   1.083       .  S
C1763      H1773   1.080       .  S
C1774      C1775   1.404       .  A
C1774      C1779   1.405   1_455  A
C1775      C1776   1.401       .  A
C1776      C1777   1.406       .  A
C1777      C1778   1.407   1_455  A
C1777      C1780   1.489       .  S
C1778      C1779   1.397       .  A
C1778      H1790   1.081       .  S
C1779      H1791   1.083       .  S
C1780      C1781   1.350   1_455  D
C1780      H1792   1.083       .  S
C1781      C1782   1.490       .  S
C1781      H1793   1.084       .  S
C1782      C1783   1.406       .  A
C1782      C1787   1.410   1_655  A
C1783      C1784   1.398       .  A
C1783      H1794   1.083       .  S
C1784      C1785   1.402       .  A
C1784      H1795   1.083       .  S
C1785      C1786   1.402   1_655  A
C1786      C1787   1.398       .  A
C1787      H1797   1.080       .  S
C1798      C1799   1.404       .  A
C1799      C1800   1.397       .  A
C1799      H1812   1.083       .  S
C1800      C1801   1.403       .  A
C1800      H1813   1.083       .  S
C1801      C1802   1.410   1_655  A
C1801      C1804   1.492       .  S
C1803      H1815   1.083       .  S
C1804      C1805   1.348   1_655  D
C1804      H1816   1.085       .  S
C1805      C1806   1.492   1_455  S
C1806      C1811   1.411       .  A
C1807      C1808   1.397       .  A
C1807      H1818   1.083       .  S
C1808      H1819   1.083       .  S
C1809      C1810   1.405       .  A
C1810      C1811   1.403       .  A
C1810      H1820   1.083       .  S
C1811      H1821   1.081       .  S
C1822      C1823   1.405       .  A
C1822      C1827   1.405   1_655  A
C1823      C1824   1.403       .  A
C1823      H1836   1.083       .  S
C1824      C1825   1.406       .  A
C1824      H1837   1.083       .  S
C1825      C1828   1.495       .  S
C1826      H1838   1.081       .  S
C1828      C1829   1.350       .  D
C1828      H1840   1.086       .  S
C1829      C1830   1.492       .  S
C1830      C1835   1.410       .  A
C1831      C1832   1.397       .  A
C1831      H1842   1.083       .  S
C1832      H1843   1.083       .  S
C1833      C1834   1.405       .  A
C1834      C1835   1.406       .  A
C1834      H1844   1.083       .  S
C1835      H1845   1.082       .  S
C1846      C1847   1.404       .  A
C1847      C1848   1.397       .  A
C1847      H1860   1.083       .  S
C1848      C1849   1.403       .  A
C1848      H1861   1.083       .  S
C1849      C1850   1.409       .  A
C1849      C1852   1.488       .  S
C1851      H1863   1.083       .  S
C1852      C1853   1.349       .  D
C1852      H1864   1.083       .  S
C1853      C1854   1.492       .  S
C1853      H1865   1.085   1_655  S
C1854      C1855   1.405   1_655  A
C1854      C1859   1.412       .  A
C1855      C1856   1.397       .  A
C1855      H1866   1.083       .  S
C1856      C1857   1.403   1_455  A
C1856      H1867   1.083       .  S
C1857      C1858   1.402       .  A
C1858      C1859   1.402       .  A
C1858      H1868   1.083       .  S
C1859      H1869   1.080       .  S
C1870      C1875   1.403   1_455  A
C1871      C1872   1.396       .  A
C1871      H1884   1.083       .  S
C1872      C1873   1.403       .  A
C1872      H1885   1.083       .  S
C1873      C1876   1.487       .  S
C1874      C1875   1.398       .  A
C1874      H1886   1.081       .  S
C1875      H1887   1.083       .  S
C1876      H1888   1.084       .  S
C1877      C1878   1.486       .  S
C1877      H1889   1.084       .  S
C1878      C1879   1.402       .  A
C1879      C1880   1.395       .  A
C1879      H1890   1.084       .  S
C1880      C1881   1.405       .  A
C1880      H1891   1.083       .  S
C1882      C1883   1.401       .  A
C1882      H1892   1.083       .  S
C1883      H1893   1.081       .  S
C1894      C1895   1.404       .  A
C1895      C1896   1.400       .  A
C1895      H1908   1.083       .  S
C1896      C1897   1.405       .  A
C1896      H1909   1.083       .  S
C1897      C1900   1.487       .  S
C1898      C1899   1.396       .  A
C1898      H1910   1.081       .  S
C1899      H1911   1.083       .  S
C1900      H1912   1.086       .  S
C1901      C1902   1.484       .  S
C1901      H1913   1.085       .  S
C1902      C1903   1.404       .  A
C1903      C1904   1.397       .  A
C1903      H1914   1.083       .  S
C1904      C1905   1.404       .  A
C1904      H1915   1.083       .  S
C1906      C1907   1.398       .  A
C1906      H1916   1.083       .  S
C1907      H1917   1.082       .  S
C1918      C1923   1.403       .  A
C1919      C1920   1.396       .  A
C1919      H1932   1.083       .  S
C1920      C1921   1.403       .  A
C1920      H1933   1.083       .  S
C1921      C1924   1.489       .  S
C1922      C1923   1.402       .  A
C1922      H1934   1.081       .  S
C1923      H1935   1.083       .  S
C1924      H1936   1.084       .  S
C1925      C1926   1.489       .  S
C1925      H1937   1.084       .  S
C1926      C1927   1.404       .  A
C1927      C1928   1.396       .  A
C1927      H1938   1.083       .  S
C1928      C1929   1.402       .  A
C1928      H1939   1.083       .  S
C1930      C1931   1.401       .  A
C1930      H1940   1.083       .  S
C1931      H1941   1.081       .  S
C1942      C1943   1.403       .  A
C1943      C1944   1.401       .  A
C1943      H1956   1.083       .  S
C1944      C1945   1.406       .  A
C1944      H1957   1.083       .  S
C1945      C1948   1.492       .  S
C1946      C1947   1.400       .  A
C1946      H1958   1.082       .  S
C1947      H1959   1.083       .  S
C1948      H1960   1.086       .  S
C1949      C1950   1.491       .  S
C1949      H1961   1.086       .  S
C1950      C1951   1.404       .  A
C1951      C1952   1.398       .  A
C1951      H1962   1.083       .  S
C1952      H1963   1.083       .  S
C1953      C1954   1.404       .  A
C1954      C1955   1.404       .  A
C1954      H1964   1.083       .  S
C1955      H1965   1.082       .  S
C1966      C1967   1.405       .  A
C1966      C1971   1.404       .  A
C1967      C1968   1.396       .  A
C1967      H1980   1.083       .  S
C1968      C1969   1.400       .  A
C1968      H1981   1.083       .  S
C1969      C1970   1.407       .  A
C1969      C1972   1.478       .  S
C1970      C1971   1.400       .  A
C1970      H1982   1.083       .  S
C1971      H1983   1.083       .  S
C1972      C1973   1.341       .  D
C1972      H1984   1.087       .  S
C1973      C1974   1.478       .  S
C1973      H1985   1.087       .  S
C1974      C1975   1.400       .  A
C1974      C1979   1.407       .  A
C1975      C1976   1.394       .  A
C1975      H1986   1.084       .  S
C1976      C1977   1.405       .  A
C1976      H1987   1.083       .  S
C1977      C1978   1.406       .  A
C1978      C1979   1.400       .  A
C1978      H1988   1.083       .  S
C1979      H1989   1.083       .  S
C1990      C1991   1.405       .  A
C1990      C1995   1.404       .  A
C1991      C1992   1.397       .  A
C1991      H2004   1.083       .  S
C1992      C1993   1.401       .  A
C1992      H2005   1.083       .  S
C1993      C1994   1.407       .  A
C1993      C1996   1.479       .  S
C1994      C1995   1.399       .  A
C1994      H2006   1.083       .  S
C1995      H2007   1.083       .  S
C1996      C1997   1.342       .  D
C1996      H2008   1.087       .  S
C1997      C1998   1.479       .  S
C1997      H2009   1.087       .  S
C1998      C1999   1.401       .  A
C1998      C2003   1.407       .  A
C1999      C2000   1.394       .  A
C1999      H2010   1.084       .  S
C2000      C2001   1.404       .  A
C2000      H2011   1.083       .  S
C2001      C2002   1.406       .  A
C2002      C2003   1.400       .  A
C2002      H2012   1.083       .  S
C2003      H2013   1.083       .  S
C2014      C2015   1.403       .  A
C2014      C2019   1.403       .  A
C2015      C2016   1.399       .  A
C2015      H2028   1.083       .  S
C2016      C2017   1.405       .  A
C2016      H2029   1.083       .  S
C2017      C2018   1.410       .  A
C2017      C2020   1.490       .  S
C2018      C2019   1.398       .  A
C2018      H2030   1.080       .  S
C2019      H2031   1.083       .  S
C2020      C2021   1.349       .  D
C2020      H2032   1.085       .  S
C2021      C2022   1.487       .  S
C2021      H2033   1.084       .  S
C2022      C2023   1.405       .  A
C2022      C2027   1.408       .  A
C2023      C2024   1.398       .  A
C2023      H2034   1.083       .  S
C2024      C2025   1.402       .  A
C2024      H2035   1.083       .  S
C2025      C2026   1.404       .  A
C2026      C2027   1.398       .  A
C2026      H2036   1.083       .  S
C2027      H2037   1.081       .  S
C2038      C2039   1.405       .  A
C2038      C2043   1.404       .  A
C2039      C2040   1.399       .  A
C2039      H2052   1.083       .  S
C2040      C2041   1.404       .  A
C2040      H2053   1.084       .  S
C2041      C2042   1.409       .  A
C2041      C2044   1.488       .  S
C2042      C2043   1.398       .  A
C2042      H2054   1.081       .  S
C2043      H2055   1.083       .  S
C2044      C2045   1.349       .  D
C2044      H2056   1.084       .  S
C2045      C2046   1.489       .  S
C2045      H2057   1.085       .  S
C2046      C2047   1.405       .  A
C2046      C2051   1.410       .  A
C2047      C2048   1.397       .  A
C2047      H2058   1.084       .  S
C2048      C2049   1.403       .  A
C2048      H2059   1.083       .  S
C2049      C2050   1.403       .  A
C2050      C2051   1.400       .  A
C2050      H2060   1.083       .  S
C2051      H2061   1.080       .  S
C2062      C2063   1.415       .  A
C2062      C2067   1.407       .  A
C2062      C2736   1.482       .  S
C2063      C2064   1.399       .  A
C2063      C2688   1.487       .  S
C2064      C2065   1.401       .  A
C2064      H2069   1.085       .  S
C2065      C2066   1.417       .  A
C2065      C2664   1.486       .  S
C2066      C2067   1.408       .  A
C2066      C2701   1.485       .  S
C2067      H2068   1.084       .  S
C2070      C2071   1.417       .  A
C2070      C2075   1.402       .  A
C2071      C2072   1.408       .  A
C2072      C2073   1.409       .  A
C2072      H2077   1.084       .  S
C2073      C2074   1.416       .  A
C2074      C2075   1.400       .  A
C2074      C2592   1.488       .  S
C2075      H2076   1.085       .  S
O2078      C2081   1.269       .  A
C2079      C2568   1.479       .  S
C2079      O2088   1.263       .  A
O2080      C2086   1.267       .  A
O2080     Cd2083   2.490       .  S
C2081      C2653   1.474       .  S
C2081      O2089   1.264       .  A
C2082      C2677   1.474       .  S
C2082      O2087   1.268       .  A
C2082      O2085   1.265       .  A
C2086      C2581   1.480       .  S
C2091      C2092   1.417       .  A
C2091      C2096   1.408       .  A
C2091      C2544   1.484       .  S
C2092      C2093   1.403       .  A
C2092      C2485   1.493       .  S
C2093      C2094   1.404       .  A
C2093      H2098   1.084       .  S
C2094      C2095   1.417       .  A
C2094      C2472   1.483       .  S
C2095      C2096   1.407       .  A
C2095      C2509   1.491       .  S
C2096      H2097   1.084       .  S
C2100      C2437   1.482       .  S
O2101     Cd2104   2.493   1_565  S
C2102      C2461   1.481       .  S
C2102      O2110   1.265   1_455  A
C2103      C2496   1.483       .  S
C2103      O2108   1.270       .  A
Cd2104     O2109   2.440   1_645  S
Cd2104     O2108   2.500   1_545  S
C2107      C2413   1.480       .  S
C2107      O2111   1.265       .  A
C2112      C2113   1.417       .  A
C2112      C2117   1.409       .  A
C2112      C2400   1.485       .  S
C2113      C2114   1.400       .  A
C2113      C2448   1.485       .  S
C2114      C2115   1.401       .  A
C2114      H2119   1.085       .  S
C2115      C2116   1.416       .  A
C2115      C2424   1.485       .  S
C2116      C2117   1.408       .  A
C2116      C2365   1.487       .  S
C2117      H2118   1.084       .  S
C2120      C2121   1.415       .  A
C2120      C2125   1.409       .  A
C2120      C2352   1.487       .  S
C2121      C2122   1.398       .  A
C2121      C2280   1.479       .  S
C2122      C2123   1.399       .  A
C2122      H2127   1.085       .  S
C2123      C2124   1.417       .  A
C2123      C2293   1.480       .  S
C2124      C2125   1.408       .  A
C2124      C2317   1.490       .  S
C2125      H2126   1.084       .  S
C2128      C2129   1.420       .  A
C2128      C2725   1.487       .  S
C2129      C2341   1.489       .  S
C2130      H2135   1.084       .  S
C2131      C2132   1.415       .  A
C2131      C2328   1.489       .  S
C2132      C2712   1.483       .  S
C2133      H2134   1.084       .  S
O2136      C2139   1.266       .  A
C2137      C2245   1.478       .  S
C2137      O2146   1.266       .  A
O2138      C2144   1.266       .  A
O2138     Cd2141   2.485       .  S
C2139      C2269   1.476       .  S
C2139      O2147   1.263       .  A
C2140      C2304   1.479       .  S
C2140      O2145   1.267       .  A
C2140      O2143   1.263       .  A
C2144      C2232   1.477       .  S
C2149      C2150   1.422       .  A
C2149      C2154   1.407       .  A
C2149      C2208   1.493       .  S
C2150      C2151   1.406       .  A
C2150      C2256   1.489       .  S
C2151      C2152   1.402       .  A
C2151      H2156   1.084       .  S
C2152      C2153   1.414       .  A
C2152      C2221   1.489       .  S
C2153      C2154   1.402       .  A
C2153      C2173   1.482       .  S
C2154      H2155   1.084       .  S
C2157      C2158   1.421       .  A
C2157      C2389   1.487   1_554  S
C2158      C2197   1.491       .  S
C2159      C2160   1.401       .  A
C2159      H2164   1.084       .  S
C2160      C2161   1.414       .  A
C2160      C2184   1.481       .  S
C2161      C2162   1.405       .  A
C2161      C2376   1.487   1_554  S
C2162      H2163   1.084   1_554  S
C2165      C2166   1.417       .  A
C2165      C2640   1.488       .  S
C2166      C2533   1.485       .  S
C2167      C2168   1.404       .  A
C2167      H2172   1.084       .  S
C2168      C2169   1.415       .  A
C2168      C2520   1.488       .  S
C2169      C2170   1.406       .  A
C2169      C2616   1.482       .  S
C2173      C2174   1.403   1_545  A
C2173      C2178   1.401       .  A
C2174      C2175   1.397       .  A
C2174      H2187   1.083       .  S
C2175      H2188   1.083       .  S
C2176      C2177   1.410       .  A
C2176      C2179   1.488       .  S
C2177      H2189   1.080       .  S
C2178      H2190   1.083       .  S
C2179      C2180   1.347       .  D
C2179      H2191   1.086       .  S
C2180      C2181   1.484       .  S
C2180      H2192   1.084       .  S
C2181      C2182   1.403       .  A
C2181      C2186   1.408       .  A
C2182      C2183   1.397       .  A
C2182      H2193   1.083       .  S
C2183      C2184   1.403       .  A
C2183      H2194   1.083       .  S
C2184      C2185   1.402       .  A
C2185      C2186   1.399       .  A
C2186      H2196   1.082       .  S
C2197      C2198   1.405       .  A
C2198      C2199   1.397       .  A
C2198      H2211   1.083       .  S
C2199      C2200   1.401       .  A
C2199      H2212   1.083       .  S
C2200      C2203   1.481       .  S
C2201      C2202   1.402       .  A
C2201      H2213   1.083       .  S
C2202      H2214   1.083       .  S
C2203      C2204   1.344       .  D
C2203      H2215   1.087       .  S
C2204      C2205   1.483       .  S
C2205      C2210   1.406       .  A
C2206      C2207   1.399   1_545  A
C2206      H2217   1.083   1_545  S
C2207      C2208   1.407   1_565  A
C2207      H2218   1.083       .  S
C2209      C2210   1.399       .  A
C2209      H2219   1.083       .  S
C2210      H2220   1.083       .  S
C2221      C2222   1.406       .  A
C2221      C2226   1.405   1_545  A
C2222      C2223   1.397       .  A
C2223      C2224   1.402       .  A
C2223      H2236   1.083       .  S
C2224      C2225   1.406   1_545  A
C2224      C2227   1.481       .  S
C2225      C2226   1.398       .  A
C2225      H2237   1.082       .  S
C2226      H2238   1.083       .  S
C2227      C2228   1.345   1_545  D
C2227      H2239   1.086       .  S
C2228      C2229   1.482       .  S
C2228      H2240   1.086       .  S
C2229      C2230   1.403   1_565  A
C2229      C2234   1.406       .  A
C2230      H2241   1.083       .  S
C2231      C2232   1.405       .  A
C2231      H2242   1.083       .  S
C2232      C2233   1.404       .  A
C2233      H2243   1.083       .  S
C2234      H2244   1.082       .  S
C2245      C2246   1.405       .  A
C2245      C2250   1.405       .  A
C2246      C2247   1.400       .  A
C2246      H2259   1.083       .  S
C2247      C2248   1.403       .  A
C2247      H2260   1.083       .  S
C2248      C2249   1.405       .  A
C2248      C2251   1.482       .  S
C2249      C2250   1.397       .  A
C2249      H2261   1.083       .  S
C2250      H2262   1.083       .  S
C2251      C2252   1.345       .  D
C2251      H2263   1.087       .  S
C2252      C2253   1.481       .  S
C2252      H2264   1.086       .  S
C2253      C2254   1.402       .  A
C2253      C2258   1.405       .  A
C2254      H2265   1.083       .  S
C2255      C2256   1.406   1_565  A
C2255      H2266   1.083       .  S
C2257      C2258   1.398       .  A
C2257      H2267   1.083       .  S
C2258      H2268   1.083       .  S
C2269      C2270   1.405       .  A
C2269      C2274   1.404       .  A
C2270      C2271   1.401       .  A
C2270      H2283   1.083       .  S
C2271      C2272   1.404       .  A
C2271      H2284   1.083       .  S
C2272      C2273   1.405       .  A
C2272      C2275   1.482       .  S
C2273      C2274   1.393       .  A
C2273      H2285   1.082       .  S
C2274      H2286   1.083       .  S
C2275      C2276   1.346       .  D
C2275      H2287   1.086       .  S
C2276      C2277   1.480       .  S
C2276      H2288   1.086       .  S
C2277      C2278   1.402       .  A
C2277      C2282   1.407       .  A
C2278      C2279   1.395       .  A
C2278      H2289   1.083       .  S
C2279      C2280   1.403       .  A
C2279      H2290   1.083       .  S
C2280      C2281   1.403       .  A
C2281      C2282   1.399       .  A
C2281      H2291   1.083       .  S
C2282      H2292   1.082       .  S
C2293      C2294   1.404       .  A
C2293      C2298   1.402       .  A
C2294      C2295   1.395       .  A
C2294      H2307   1.083       .  S
C2295      C2296   1.402       .  A
C2295      H2308   1.083       .  S
C2296      C2297   1.408       .  A
C2296      C2299   1.481       .  S
C2297      C2298   1.399       .  A
C2297      H2309   1.082       .  S
C2298      H2310   1.083       .  S
C2299      C2300   1.346       .  D
C2299      H2311   1.086       .  S
C2300      C2301   1.483       .  S
C2300      H2312   1.086       .  S
C2301      C2302   1.404       .  A
C2301      C2306   1.405       .  A
C2302      C2303   1.400       .  A
C2302      H2313   1.083       .  S
C2303      C2304   1.405       .  A
C2303      H2314   1.083       .  S
C2304      C2305   1.406       .  A
C2305      C2306   1.396       .  A
C2305      H2315   1.083       .  S
C2306      H2316   1.082       .  S
C2317      C2318   1.404       .  A
C2317      C2322   1.405       .  A
C2318      C2319   1.398       .  A
C2318      H2331   1.083       .  S
C2319      C2320   1.405       .  A
C2319      H2332   1.083       .  S
C2320      C2321   1.410       .  A
C2320      C2323   1.493       .  S
C2321      C2322   1.401       .  A
C2321      H2333   1.081       .  S
C2322      H2334   1.083       .  S
C2323      C2324   1.350       .  D
C2323      H2335   1.083       .  S
C2324      C2325   1.495       .  S
C2324      H2336   1.084       .  S
C2325      C2326   1.405       .  A
C2325      C2330   1.412       .  A
C2326      C2327   1.398       .  A
C2326      H2337   1.083       .  S
C2327      C2328   1.404       .  A
C2327      H2338   1.083       .  S
C2328      C2329   1.403       .  A
C2329      C2330   1.401       .  A
C2329      H2339   1.083       .  S
C2330      H2340   1.080       .  S
C2341      C2342   1.403       .  A
C2341      C2346   1.405       .  A
C2342      C2343   1.398       .  A
C2342      H2355   1.083       .  S
C2343      C2344   1.405       .  A
C2343      H2356   1.083       .  S
C2344      C2345   1.409       .  A
C2344      C2347   1.490       .  S
C2345      C2346   1.399       .  A
C2345      H2357   1.080       .  S
C2346      H2358   1.083       .  S
C2347      C2348   1.349       .  D
C2347      H2359   1.085       .  S
C2348      C2349   1.488       .  S
C2348      H2360   1.084       .  S
C2349      C2350   1.404       .  A
C2349      C2354   1.409       .  A
C2350      C2351   1.398       .  A
C2350      H2361   1.083       .  S
C2351      C2352   1.404       .  A
C2351      H2362   1.083       .  S
C2352      C2353   1.405       .  A
C2353      C2354   1.399       .  A
C2353      H2363   1.083       .  S
C2354      H2364   1.081       .  S
C2365      C2366   1.403       .  A
C2365      C2370   1.404       .  A
C2366      C2367   1.397       .  A
C2366      H2379   1.083       .  S
C2367      C2368   1.404       .  A
C2367      H2380   1.083       .  S
C2368      C2371   1.493       .  S
C2369      H2381   1.080       .  S
C2371      H2383   1.085       .  S
C2372      C2373   1.493       .  S
C2372      H2384   1.084       .  S
C2373      C2374   1.404       .  A
C2374      C2375   1.399   1_556  A
C2374      H2385   1.083   1_556  S
C2375      H2386   1.083       .  S
C2376      C2377   1.402       .  A
C2377      C2378   1.401       .  A
C2377      H2387   1.083       .  S
C2378      H2388   1.081       .  S
C2389      C2394   1.403       .  A
C2390      C2391   1.399   1_554  A
C2390      H2403   1.083       .  S
C2391      H2404   1.083   1_556  S
C2392      C2393   1.408       .  A
C2392      C2395   1.488       .  S
C2393      C2394   1.399       .  A
C2393      H2405   1.082       .  S
C2394      H2406   1.083       .  S
C2395      C2396   1.349       .  D
C2396      C2397   1.492       .  S
C2396      H2408   1.086       .  S
C2397      C2398   1.405       .  A
C2397      C2402   1.411       .  A
C2398      C2399   1.397       .  A
C2398      H2409   1.083       .  S
C2399      C2400   1.403       .  A
C2399      H2410   1.083       .  S
C2400      C2401   1.403       .  A
C2401      C2402   1.401       .  A
C2413      C2414   1.404       .  A
C2414      C2415   1.395       .  A
C2414      H2427   1.083       .  S
C2415      C2416   1.403       .  A
C2415      H2428   1.084       .  S
C2416      C2419   1.486       .  S
C2417      C2418   1.403       .  A
C2417      H2429   1.081       .  S
C2418      H2430   1.083       .  S
C2419      H2431   1.086       .  S
C2420      C2421   1.487       .  S
C2420      H2432   1.085       .  S
C2421      C2422   1.404       .  A
C2422      C2423   1.400       .  A
C2422      H2433   1.083       .  S
C2423      H2434   1.083       .  S
C2424      C2425   1.403       .  A
C2425      C2426   1.395       .  A
C2425      H2435   1.083       .  S
C2426      H2436   1.082       .  S
C2437      C2442   1.404       .  A
C2438      C2439   1.396       .  A
C2438      H2451   1.083       .  S
C2439      C2440   1.404       .  A
C2439      H2452   1.083       .  S
C2440      C2441   1.413       .  A
C2440      C2443   1.495       .  S
C2441      H2453   1.079       .  S
C2442      H2454   1.083       .  S
C2443      C2444   1.349       .  D
C2443      H2455   1.083       .  S
C2444      C2445   1.493       .  S
C2444      H2456   1.082       .  S
C2445      C2446   1.404       .  A
C2445      C2450   1.412       .  A
C2446      C2447   1.396       .  A
C2446      H2457   1.083       .  S
C2447      C2448   1.402       .  A
C2447      H2458   1.083       .  S
C2448      C2449   1.403       .  A
C2449      C2450   1.401       .  A
C2449      H2459   1.083       .  S
C2450      H2460   1.080       .  S
C2461      C2462   1.404       .  A
C2461      C2466   1.405   1_455  A
C2462      C2463   1.401       .  A
C2463      C2464   1.406       .  A
C2464      C2465   1.407   1_455  A
C2464      C2467   1.489       .  S
C2465      C2466   1.397       .  A
C2465      H2477   1.081       .  S
C2466      H2478   1.083       .  S
C2467      C2468   1.350   1_455  D
C2467      H2479   1.083       .  S
C2468      C2469   1.491       .  S
C2468      H2480   1.084       .  S
C2469      C2470   1.406       .  A
C2469      C2474   1.410   1_655  A
C2470      C2471   1.398       .  A
C2470      H2481   1.083       .  S
C2471      C2472   1.402       .  A
C2471      H2482   1.083       .  S
C2472      C2473   1.402   1_655  A
C2473      C2474   1.398       .  A
C2474      H2484   1.080       .  S
C2485      C2486   1.405       .  A
C2486      C2487   1.398       .  A
C2486      H2499   1.083       .  S
C2487      C2488   1.404       .  A
C2487      H2500   1.083       .  S
C2488      C2489   1.410   1_655  A
C2488      C2491   1.492       .  S
C2490      H2502   1.083       .  S
C2491      C2492   1.348   1_655  D
C2491      H2503   1.085       .  S
C2492      C2493   1.491   1_455  S
C2493      C2498   1.411       .  A
C2494      C2495   1.397       .  A
C2494      H2505   1.083       .  S
C2495      H2506   1.083       .  S
C2496      C2497   1.405       .  A
C2497      C2498   1.404       .  A
C2497      H2507   1.083       .  S
C2498      H2508   1.081       .  S
C2509      C2510   1.404       .  A
C2509      C2514   1.405   1_655  A
C2510      C2511   1.402       .  A
C2510      H2523   1.083       .  S
C2511      C2512   1.406       .  A
C2511      H2524   1.083       .  S
C2512      C2515   1.494       .  S
C2513      H2525   1.081       .  S
C2515      C2516   1.349       .  D
C2515      H2527   1.086       .  S
C2516      C2517   1.491       .  S
C2517      C2522   1.410       .  A
C2518      C2519   1.397       .  A
C2518      H2529   1.083       .  S
C2519      H2530   1.083       .  S
C2520      C2521   1.404       .  A
C2521      C2522   1.405       .  A
C2521      H2531   1.083       .  S
C2522      H2532   1.082       .  S
C2533      C2534   1.404       .  A
C2534      C2535   1.397       .  A
C2534      H2547   1.083       .  S
C2535      C2536   1.403       .  A
C2535      H2548   1.083       .  S
C2536      C2537   1.410       .  A
C2536      C2539   1.489       .  S
C2538      H2550   1.083       .  S
C2539      C2540   1.349       .  D
C2539      H2551   1.083       .  S
C2540      C2541   1.492       .  S
C2540      H2552   1.085   1_655  S
C2541      C2542   1.405   1_655  A
C2541      C2546   1.412       .  A
C2542      C2543   1.397       .  A
C2542      H2553   1.083       .  S
C2543      C2544   1.402   1_455  A
C2543      H2554   1.083       .  S
C2544      C2545   1.402       .  A
C2545      C2546   1.401       .  A
C2545      H2555   1.083       .  S
C2546      H2556   1.080       .  S
C2557      C2562   1.402   1_455  A
C2558      C2559   1.397       .  A
C2558      H2571   1.083       .  S
C2559      C2560   1.403       .  A
C2559      H2572   1.083       .  S
C2560      C2563   1.487       .  S
C2561      C2562   1.398       .  A
C2561      H2573   1.081       .  S
C2562      H2574   1.083       .  S
C2563      H2575   1.085       .  S
C2564      C2565   1.485       .  S
C2564      H2576   1.085       .  S
C2565      C2566   1.402       .  A
C2566      C2567   1.394       .  A
C2566      H2577   1.084       .  S
C2567      C2568   1.405       .  A
C2567      H2578   1.083       .  S
C2569      C2570   1.401       .  A
C2569      H2579   1.083       .  S
C2570      H2580   1.081       .  S
C2581      C2582   1.404       .  A
C2582      C2583   1.400       .  A
C2582      H2595   1.083       .  S
C2583      C2584   1.405       .  A
C2583      H2596   1.083       .  S
C2584      C2587   1.488       .  S
C2585      C2586   1.397       .  A
C2585      H2597   1.081       .  S
C2586      H2598   1.083       .  S
C2587      H2599   1.086       .  S
C2588      C2589   1.486       .  S
C2588      H2600   1.085       .  S
C2589      C2590   1.404       .  A
C2590      C2591   1.398       .  A
C2590      H2601   1.083       .  S
C2591      C2592   1.404       .  A
C2591      H2602   1.083       .  S
C2593      C2594   1.399       .  A
C2593      H2603   1.083       .  S
C2594      H2604   1.082       .  S
C2605      C2610   1.403       .  A
C2606      C2607   1.396       .  A
C2606      H2619   1.083       .  S
C2607      C2608   1.403       .  A
C2607      H2620   1.083       .  S
C2608      C2611   1.490       .  S
C2609      C2610   1.401       .  A
C2609      H2621   1.081       .  S
C2610      H2622   1.083       .  S
C2611      H2623   1.084       .  S
C2612      C2613   1.489       .  S
C2612      H2624   1.084       .  S
C2613      C2614   1.403       .  A
C2614      C2615   1.396       .  A
C2614      H2625   1.083       .  S
C2615      C2616   1.402       .  A
C2615      H2626   1.083       .  S
C2617      C2618   1.401       .  A
C2617      H2627   1.083       .  S
C2618      H2628   1.081       .  S
C2629      C2630   1.404       .  A
C2630      C2631   1.401       .  A
C2630      H2643   1.083       .  S
C2631      C2632   1.406       .  A
C2631      H2644   1.083       .  S
C2632      C2635   1.492       .  S
C2633      C2634   1.400       .  A
C2633      H2645   1.082       .  S
C2634      H2646   1.083       .  S
C2635      H2647   1.086       .  S
C2636      C2637   1.490       .  S
C2636      H2648   1.086       .  S
C2637      C2638   1.404       .  A
C2638      C2639   1.399       .  A
C2638      H2649   1.083       .  S
C2639      H2650   1.083       .  S
C2640      C2641   1.404       .  A
C2641      C2642   1.403       .  A
C2641      H2651   1.083       .  S
C2642      H2652   1.082       .  S
C2653      C2654   1.405       .  A
C2653      C2658   1.403       .  A
C2654      C2655   1.396       .  A
C2654      H2667   1.083       .  S
C2655      C2656   1.400       .  A
C2655      H2668   1.083       .  S
C2656      C2657   1.407       .  A
C2656      C2659   1.478       .  S
C2657      C2658   1.399       .  A
C2657      H2669   1.083       .  S
C2658      H2670   1.083       .  S
C2659      C2660   1.342       .  D
C2659      H2671   1.087       .  S
C2660      C2661   1.478       .  S
C2660      H2672   1.087       .  S
C2661      C2662   1.400       .  A
C2661      C2666   1.407       .  A
C2662      C2663   1.393       .  A
C2662      H2673   1.084       .  S
C2663      C2664   1.405       .  A
C2663      H2674   1.083       .  S
C2664      C2665   1.406       .  A
C2665      C2666   1.400       .  A
C2665      H2675   1.083       .  S
C2666      H2676   1.083       .  S
C2677      C2678   1.405       .  A
C2677      C2682   1.404       .  A
C2678      C2679   1.397       .  A
C2678      H2691   1.083       .  S
C2679      C2680   1.400       .  A
C2679      H2692   1.083       .  S
C2680      C2681   1.406       .  A
C2680      C2683   1.479       .  S
C2681      C2682   1.400       .  A
C2681      H2693   1.083       .  S
C2682      H2694   1.083       .  S
C2683      C2684   1.342       .  D
C2683      H2695   1.087       .  S
C2684      C2685   1.479       .  S
C2684      H2696   1.087       .  S
C2685      C2686   1.401       .  A
C2685      C2690   1.407       .  A
C2686      C2687   1.394       .  A
C2686      H2697   1.084       .  S
C2687      C2688   1.404       .  A
C2687      H2698   1.083       .  S
C2688      C2689   1.406       .  A
C2689      C2690   1.400       .  A
C2689      H2699   1.083       .  S
C2690      H2700   1.083       .  S
C2701      C2702   1.403       .  A
C2701      C2706   1.403       .  A
C2702      C2703   1.399       .  A
C2702      H2715   1.083       .  S
C2703      C2704   1.405       .  A
C2703      H2716   1.083       .  S
C2704      C2705   1.410       .  A
C2704      C2707   1.490       .  S
C2705      C2706   1.398       .  A
C2705      H2717   1.080       .  S
C2706      H2718   1.083       .  S
C2707      C2708   1.349       .  D
C2707      H2719   1.085       .  S
C2708      C2709   1.487       .  S
C2708      H2720   1.084       .  S
C2709      C2710   1.405       .  A
C2709      C2714   1.408       .  A
C2710      C2711   1.398       .  A
C2710      H2721   1.083       .  S
C2711      C2712   1.402       .  A
C2711      H2722   1.083       .  S
C2712      C2713   1.404       .  A
C2713      C2714   1.399       .  A
C2713      H2723   1.083       .  S
C2714      H2724   1.081       .  S
C2725      C2726   1.404       .  A
C2725      C2730   1.403       .  A
C2726      C2727   1.399       .  A
C2726      H2739   1.083       .  S
C2727      C2728   1.404       .  A
C2727      H2740   1.084       .  S
C2728      C2729   1.408       .  A
C2728      C2731   1.488       .  S
C2729      C2730   1.398       .  A
C2729      H2741   1.081       .  S
C2730      H2742   1.083       .  S
C2731      C2732   1.349       .  D
C2731      H2743   1.084       .  S
C2732      C2733   1.488       .  S
C2732      H2744   1.085       .  S
C2733      C2734   1.404       .  A
C2733      C2738   1.410       .  A
C2734      C2735   1.396       .  A
C2734      H2745   1.084       .  S
C2735      C2736   1.403       .  A
C2735      H2746   1.083       .  S
C2736      C2737   1.402       .  A
C2737      C2738   1.399       .  A
C2737      H2747   1.083       .  S
C2738      H2748   1.080       .  S
