geometry optimzed in LAMMPS
_audit_creation_date              2020-12-01 
_audit_creation_method            'lammps2cif' 
_symmetry_space_group_name_H-M    'P1' 
_symmetry_Int_Tables_number       1 
_symmetry_cell_setting            triclinic 
loop_ 
_symmetry_equiv_pos_as_xyz 
  x,y,z 
_cell_length_a                    38.38075257 
_cell_length_b                    40.26212573958562 
_cell_length_c                    67.13403474064889 
_cell_angle_alpha                 90.2173521214763 
_cell_angle_beta                  90.01994359657373 
_cell_angle_gamma                 121.14879507433571 
loop_ 
_atom_site_label 
_atom_site_type_symbol 
_atom_site_fract_x 
_atom_site_fract_y 
_atom_site_fract_z 
_atom_site_charge 
O1          O  0.24261613  0.04086867  0.02108011    -0.73200
O2          O  0.19836980  0.45426441  0.98224322    -0.74200
O3          O  0.20317126  0.45915323  0.02445867    -0.62800
O4          O  0.24009864  0.03614145  0.97878518    -0.71200
O5          O  0.30088351  0.04236520  0.98105275    -0.70700
O6          O  0.26089398  0.45941682  0.02135830    -0.62000
O7          O  0.25886906  0.46020386  0.97906609    -0.74500
O8          O  0.30062845  0.04155091  0.02348623    -0.73300
Cu9        Cu  0.21898323  0.49749374  0.00167254     1.04600
Cu10       Cu  0.28245276  0.00099922  0.00122589     1.04300
C11         C  0.27763076  0.05430445  0.02894553     0.93000
C12         C  0.22134564  0.44416506  0.97395284     0.92200
C13         C  0.22654747  0.44678576  0.02972732     0.84300
C14         C  0.27711806  0.05175531  0.97302638     0.90600
C15         C  0.08345541  0.28607091  0.81667070     0.80000
N16         N  0.04207463  0.26480665  0.81666037    -0.78300
C17         C  0.02091854  0.25754004  0.83387364     0.82400
N18         N  0.04133645  0.27197736  0.85127867    -0.78300
C19         C  0.08271871  0.29377346  0.85158946     0.82500
N20         N  0.10359232  0.30056909  0.83420807    -0.80000
C21         C  0.41428923  0.20943317  0.81585982     0.80000
N22         N  0.39336129  0.19385301  0.83305030    -0.78300
C23         C  0.41363076  0.19870539  0.85050399     0.82400
N24         N  0.45504133  0.21948589  0.85060999    -0.78300
C25         C  0.47617177  0.23482462  0.83357777     0.82500
N26         N  0.45569233  0.22963464  0.81629408    -0.80000
O27         O  0.45491905  0.25252580  0.31354971    -0.73200
O28         O  0.04312151  0.29885329  0.35339370    -0.74200
O29         O  0.04102895  0.29741092  0.31115178    -0.62800
O30         O  0.45726107  0.25182345  0.35576132    -0.71200
O31         O  0.45846439  0.19756175  0.35274771    -0.70700
O32         O  0.04736006  0.24578810  0.31332508    -0.62000
O33         O  0.04454069  0.24462717  0.35562968    -0.74500
O34         O  0.46098596  0.20088389  0.31035914    -0.73300
Cu35       Cu  0.99896708  0.27700905  0.33348004     1.04600
Cu36       Cu  0.50293159  0.22028725  0.33299101     1.04300
C37         C  0.44444202  0.22024893  0.30517860     0.93000
C38         C  0.05729176  0.27954767  0.36129037     0.92200
C39         C  0.05780051  0.27845347  0.30557301     0.84300
C40         C  0.44442678  0.21676685  0.36100079     0.90600
C41         C  0.28653694  0.20524008  0.14847399     0.80000
N42         N  0.26756586  0.22602449  0.14855547    -0.78300
C43         C  0.26223839  0.24034644  0.16597099     0.82400
N44         N  0.27607640  0.23387242  0.18328127    -0.78300
C45         C  0.29542974  0.21358077  0.18337026     0.82500
N46         N  0.30042847  0.19942411  0.16593493    -0.80000
C47         C  0.20987174  0.29049431  0.18426374     0.80000
N48         N  0.20474413  0.30485489  0.16700367    -0.78300
C49         C  0.21788137  0.29867805  0.14940418     0.82400
N50         N  0.23621258  0.27739378  0.14910328    -0.78300
C51         C  0.24177465  0.26289194  0.16626895     0.82500
N52         N  0.22872360  0.26968557  0.18382740    -0.80000
O53         O  0.19959772  0.24581553  0.68578637    -0.73200
O54         O  0.24168904  0.20383520  0.64529374    -0.74200
O55         O  0.24161711  0.20509988  0.68768379    -0.62800
O56         O  0.20144695  0.24647459  0.64349007    -0.71200
O57         O  0.25949324  0.30291185  0.64626969    -0.70700
O58         O  0.30185109  0.25933635  0.68536261    -0.62000
O59         O  0.29963379  0.26045443  0.64305688    -0.74500
O60         O  0.25999575  0.29989728  0.68848832    -0.73300
Cu61       Cu  0.21897964  0.22332255  0.66552676     1.04600
Cu62       Cu  0.28231997  0.28258368  0.66578062     1.04300
C63         C  0.22285425  0.27868117  0.69399830     0.93000
C64         C  0.27657572  0.22514132  0.63741712     0.92200
C65         C  0.27880497  0.22627626  0.69327221     0.84300
C66         C  0.22450453  0.28199989  0.63833225     0.90600
C67         C  0.28680380  0.08312089  0.51858705     0.80000
N68         N  0.30088230  0.10162404  0.50088599    -0.78300
C69         C  0.29461560  0.08118634  0.48375531     0.82400
N70         N  0.27372263  0.04180643  0.48443673    -0.78300
C71         C  0.25957332  0.02285532  0.50195716     0.82500
N72         N  0.26629208  0.04358820  0.51902810    -0.80000
C73         C  0.21169478  0.42093002  0.51929615     0.80000
N74         N  0.19684345  0.40137748  0.50181254    -0.78300
C75         C  0.20183477  0.42075906  0.48452042     0.82400
N76         N  0.22219857  0.46017239  0.48483720    -0.78300
C77         C  0.23704836  0.48014368  0.50215658     0.82500
N78         N  0.23168006  0.46043772  0.51936550    -0.80000
C79         C  0.26433841  0.08802509  0.59069365    -0.18100
C80         C  0.26377263  0.10830698  0.60749255    -0.20200
C81         C  0.27899390  0.14831316  0.60649077     0.20400
C82         C  0.29626999  0.16845830  0.58862662    -0.03200
C83         C  0.29663253  0.14789950  0.57161369    -0.06200
C84         C  0.28002099  0.10741159  0.57261291     0.20700
C85         C  0.31230557  0.16758847  0.55347553     0.18900
C86         C  0.32864657  0.20786557  0.55267908    -0.17700
C87         C  0.32833871  0.22828165  0.56956575    -0.19900
C88         C  0.31164987  0.20878624  0.58754762     0.20300
C89         C  0.30824902  0.22838255  0.60416904    -0.32900
C90         C  0.28878962  0.20775965  0.62155619     0.01000
C91         C  0.27544425  0.16809099  0.62278027    -0.24300
C92         C  0.27818300  0.08674403  0.55540669    -0.28800
C93         C  0.29237380  0.10582644  0.53706144     0.07600
C94         C  0.31023291  0.14648044  0.53634192    -0.27500
H95         H  0.25166127  0.05699724  0.59173007     0.11400
H96         H  0.25057255  0.09252308  0.62115977     0.12600
H97         H  0.34095667  0.22347276  0.53888260     0.11600
H98         H  0.34033202  0.25918758  0.56843131     0.10900
H99         H  0.31824007  0.25890976  0.60313992     0.16300
H100        H  0.26064756  0.15220330  0.63623546     0.12200
H101        H  0.26468301  0.05557206  0.55625225     0.15000
H102        H  0.32152567  0.16165705  0.52234965     0.14800
C103        C  0.24357436  0.42026928  0.59054747    -0.18100
C104        C  0.24421183  0.40047759  0.60745674    -0.20200
C105        C  0.22562993  0.35994075  0.60712045     0.20400
C106        C  0.20508482  0.33891616  0.58983301    -0.03200
C107        C  0.20462926  0.35894888  0.57271201    -0.06200
C108        C  0.22440462  0.39983646  0.57302902     0.20700
C109        C  0.18550162  0.33818958  0.55513213     0.18900
C110        C  0.16599527  0.29751922  0.55500673    -0.17700
C111        C  0.16638475  0.27763428  0.57200170    -0.19900
C112        C  0.18636827  0.29806683  0.58940922     0.20300
C113        C  0.18974475  0.27869887  0.60603654    -0.32900
C114        C  0.21242070  0.29995034  0.62277912     0.01000
C115        C  0.22897515  0.34031696  0.62345215    -0.24300
C116        C  0.22559272  0.41971684  0.55571071    -0.28800
C117        C  0.20760190  0.39940320  0.53792184     0.06700
C118        C  0.18705630  0.35850955  0.53787200    -0.27500
H119        H  0.25876265  0.45163626  0.59105570     0.11400
H120        H  0.26001045  0.41696639  0.62067095     0.12600
H121        H  0.15101885  0.28111543  0.54164693     0.11600
H122        H  0.15181636  0.24632030  0.57138198     0.10900
H123        H  0.17715868  0.24761570  0.60542704     0.16300
H124        H  0.24617511  0.35676463  0.63642963     0.12200
H125        H  0.24140416  0.45113522  0.55602180     0.15000
H126        H  0.17288679  0.34242275  0.52431653     0.14800
C127        C  0.36781674  0.20194629  0.44405162    -0.18100
C128        C  0.38791499  0.22110216  0.42654669    -0.20200
C129        C  0.38891005  0.20003369  0.41007064     0.20400
C130        C  0.36831733  0.15910998  0.41108238    -0.03200
C131        C  0.34806643  0.13981377  0.42871802    -0.06200
C132        C  0.34834702  0.16137658  0.44538935     0.20700
C133        C  0.32861031  0.09902962  0.42983868     0.18900
C134        C  0.32865668  0.07779818  0.41324105    -0.17700
C135        C  0.34880342  0.09688758  0.39581842    -0.19900
C136        C  0.36917743  0.13749199  0.39472637     0.20300
C137        C  0.39190183  0.15687106  0.37787552    -0.32900
C138        C  0.41433803  0.19766560  0.37712179     0.01000
C139        C  0.41158620  0.21912688  0.39296748    -0.24300
C140        C  0.33004805  0.14207676  0.46322675    -0.28800
C141        C  0.31147892  0.10145626  0.46459793     0.06700
C142        C  0.31031621  0.08017987  0.44767354    -0.27500
H143        H  0.36814100  0.21894092  0.45667621     0.11400
H144        H  0.40341975  0.25248429  0.42604868     0.12600
H145        H  0.31374419  0.04646518  0.41385713     0.11600
H146        H  0.34916792  0.07993463  0.38333357     0.10900
H147        H  0.39355539  0.14012576  0.36561555     0.16300
H148        H  0.42897115  0.25056958  0.39250102     0.12200
H149        H  0.33089516  0.15878754  0.47610720     0.15000
H150        H  0.29609207  0.04891730  0.44846693     0.14800
C151        C  0.31437726  0.22909074  0.25634341    -0.18100
C152        C  0.33434236  0.22859870  0.27364841    -0.20200
C153        C  0.36174511  0.21538490  0.27304090     0.20400
C154        C  0.36803131  0.20115457  0.25503098    -0.03200
C155        C  0.34797737  0.20180629  0.23752915    -0.06200
C156        C  0.32157108  0.21645225  0.23815439     0.20700
C157        C  0.35547269  0.18911931  0.21931057     0.18900
C158        C  0.38194424  0.17478098  0.21886390    -0.17700
C159        C  0.40188056  0.17418545  0.23621572    -0.19900
C160        C  0.39569676  0.18790639  0.25432255     0.20300
C161        C  0.41826291  0.19064963  0.27144310    -0.32900
C162        C  0.41399153  0.20728078  0.28900969     0.01000
C163        C  0.38459135  0.21815897  0.28987918    -0.24300
C164        C  0.30372755  0.21928308  0.22051604    -0.28800
C165        C  0.31198756  0.20782424  0.20216260     0.06700
C166        C  0.33730563  0.19202952  0.20177812    -0.27500
H167        H  0.29402346  0.24019770  0.25710173     0.11400
H168        H  0.32912307  0.23947673  0.28741568     0.12600
H169        H  0.38789592  0.16477140  0.20500050     0.11600
H170        H  0.42290597  0.16385744  0.23536461     0.10900
H171        H  0.44118724  0.18261849  0.27066714     0.16300
H172        H  0.38110681  0.23084582  0.30345265     0.12200
H173        H  0.28403014  0.23115016  0.22107059     0.15000
H174        H  0.34384465  0.18294716  0.18776487     0.14800
C175        C  0.17320302  0.27808230  0.27475936    -0.18100
C176        C  0.19386477  0.27852242  0.25751744    -0.20200
C177        C  0.18504775  0.28921329  0.23918908     0.20400
C178        C  0.15636573  0.30118486  0.23839230    -0.03200
C179        C  0.13559926  0.30088417  0.25581642    -0.06200
C180        C  0.14345909  0.28840767  0.27395607     0.20700
C181        C  0.10561860  0.31126074  0.25488594     0.18900
C182        C  0.09774838  0.32310146  0.23666205    -0.17700
C183        C  0.11839902  0.32348097  0.21940254    -0.19900
C184        C  0.14723718  0.31196533  0.22006365     0.20300
C185        C  0.16602638  0.30975674  0.20260764    -0.32900
C186        C  0.19338787  0.29626288  0.20311667     0.01000
C187        C  0.20336904  0.28685365  0.22157101    -0.24300
C188        C  0.11986595  0.28437090  0.29070070    -0.28800
C189        C  0.08844571  0.29253293  0.28959018     0.06700
C190        C  0.08252407  0.30750037  0.27190964    -0.27500
H191        H  0.17970550  0.26864203  0.28862595     0.11400
H192        H  0.21598987  0.26953372  0.25842814     0.12600
H193        H  0.07488317  0.33115704  0.23565022     0.11600
H194        H  0.11112776  0.33193797  0.20543706     0.10900
H195        H  0.15812477  0.31725056  0.18851834     0.16300
H196        H  0.22470152  0.27686392  0.22219760     0.12200
H197        H  0.12445926  0.27285699  0.30437493     0.15000
H198        H  0.05796920  0.31332894  0.27097407     0.14800
C199        C  0.12834871  0.29755095  0.44603011    -0.18100
C200        C  0.10940692  0.27749193  0.42841056    -0.20200
C201        C  0.11022605  0.29775434  0.41127057     0.20400
C202        C  0.13147895  0.33876920  0.41179054    -0.03200
C203        C  0.15040484  0.35896479  0.42956596    -0.06200
C204        C  0.14838939  0.33824009  0.44684465     0.20700
C205        C  0.17032505  0.39984521  0.43016909     0.18900
C206        C  0.17207149  0.42025638  0.41294913    -0.17700
C207        C  0.15335860  0.40029947  0.39537324    -0.19900
C208        C  0.13253431  0.35962572  0.39476257     0.20300
C209        C  0.11098646  0.33948189  0.37771277    -0.32900
C210        C  0.08749261  0.29868855  0.37745193     0.01000
C211        C  0.08850781  0.27785095  0.39397585    -0.24300
C212        C  0.16572689  0.35851717  0.46470049    -0.28800
C213        C  0.18499002  0.39929761  0.46550791     0.06700
C214        C  0.18749586  0.41965630  0.44805239    -0.27500
H215        H  0.12668182  0.28117682  0.45913337     0.11400
H216        H  0.09337696  0.24606405  0.42831883     0.12600
H217        H  0.18735299  0.45164169  0.41316033     0.11600
H218        H  0.15438748  0.41665416  0.38237401     0.10900
H219        H  0.11064051  0.35569497  0.36492456     0.16300
H220        H  0.07026267  0.24641536  0.39388381     0.12200
H221        H  0.16373332  0.34245456  0.47799744     0.15000
H222        H  0.20225379  0.45100636  0.44839126     0.14800
C223        C  0.40033557  0.24650377  0.72797560    -0.18100
C224        C  0.41947744  0.24523193  0.74538055    -0.20200
C225        C  0.39634302  0.22513120  0.76209123     0.20400
C226        C  0.35346814  0.20539030  0.76117123    -0.03200
C227        C  0.33407901  0.20658211  0.74353498    -0.06200
C228        C  0.35777180  0.22768537  0.72701345     0.20700
C229        C  0.29118592  0.18781751  0.74265202     0.18900
C230        C  0.26814278  0.16717072  0.75932289    -0.17700
C231        C  0.28740407  0.16596467  0.77683319    -0.19900
C232        C  0.33008333  0.18538385  0.77800281     0.20300
C233        C  0.34985055  0.18590131  0.79578234    -0.32900
C234        C  0.39273320  0.20626083  0.79689369     0.01000
C235        C  0.41555022  0.22525021  0.77981286    -0.24300
C236        C  0.33871288  0.23114046  0.71009744    -0.28800
C237        C  0.29624201  0.21440406  0.70942288     0.06700
C238        C  0.27239814  0.19157315  0.72546526    -0.27500
H239        H  0.41887855  0.26283316  0.71538034     0.11400
H240        H  0.45242655  0.26048708  0.74587225     0.12600
H241        H  0.23521468  0.15254120  0.75895463     0.11600
H242        H  0.26892179  0.15033636  0.78956902     0.10900
H243        H  0.33187297  0.17105505  0.80879158     0.16300
H244        H  0.44851889  0.24098780  0.78034274     0.12200
H245        H  0.35724710  0.24850256  0.69771304     0.15000
H246        H  0.23966364  0.17883497  0.72508070     0.14800
C247        C  0.23189439  0.32939879  0.76214759    -0.18100
C248        C  0.21192870  0.32933753  0.77963938    -0.20200
C249        C  0.16948843  0.31275711  0.77982143     0.20400
C250        C  0.14717423  0.29727922  0.76202637    -0.03200
C251        C  0.16727175  0.29729566  0.74441054    -0.06200
C252        C  0.20978595  0.31285230  0.74452785     0.20700
C253        C  0.14450562  0.28022236  0.72690594     0.18900
C254        C  0.10232179  0.26479531  0.72685905    -0.17700
C255        C  0.08249244  0.26498353  0.74424972    -0.19900
C256        C  0.10453356  0.28048386  0.76196461     0.20300
C257        C  0.08438280  0.27827810  0.77972369    -0.32900
C258        C  0.10603782  0.29220924  0.79774440     0.01000
C259        C  0.14880626  0.31025250  0.79757254    -0.24300
C260        C  0.22894705  0.30976161  0.72733342    -0.28800
C261        C  0.20577057  0.29051598  0.71031504     0.06700
C262        C  0.16391240  0.27707481  0.71001955    -0.27500
H263        H  0.26452713  0.34155856  0.76253268     0.11400
H264        H  0.22958833  0.34153349  0.79313253     0.12600
H265        H  0.08450605  0.25173341  0.71348567     0.11600
H266        H  0.04976375  0.25216323  0.74395675     0.10900
H267        H  0.05154680  0.26468898  0.77953415     0.16300
H268        H  0.16591288  0.32132182  0.81130945     0.12200
H269        H  0.26118221  0.31987261  0.72764697     0.15000
H270        H  0.14602497  0.26245548  0.69685536     0.14800
C271        C  0.18117518  0.40553016  0.09864649    -0.18100
C272        C  0.18119343  0.38547396  0.11562503    -0.20200
C273        C  0.19577369  0.35990123  0.11467751     0.20400
C274        C  0.20973321  0.35387282  0.09638750    -0.03200
C275        C  0.20977665  0.37413038  0.07927857    -0.06200
C276        C  0.19576064  0.40037189  0.08044414     0.20700
C277        C  0.22514614  0.36909349  0.06117896     0.18900
C278        C  0.23905027  0.34304471  0.06012642    -0.17700
C279        C  0.23875105  0.32279753  0.07704262    -0.19900
C280        C  0.22469760  0.32841190  0.09528813     0.20300
C281        C  0.22630111  0.30971068  0.11252540    -0.32900
C282        C  0.21339488  0.31626309  0.13094102     0.01000
C283        C  0.19753510  0.34097174  0.13179358    -0.24300
C284        C  0.19821495  0.42213058  0.06361350    -0.28800
C285        C  0.21546199  0.41854582  0.04590650     0.06700
C286        C  0.22793148  0.39137122  0.04465652    -0.27500
H287        H  0.17040518  0.42558786  0.09983849     0.11400
H288        H  0.17034071  0.39038989  0.12957045     0.12600
H289        H  0.25083500  0.33883758  0.04629275     0.11600
H290        H  0.25020140  0.30327492  0.07593567     0.10900
H291        H  0.23837070  0.29065617  0.11162938     0.16300
H292        H  0.18735142  0.34624328  0.14585935     0.12200
H293        H  0.18916838  0.44351794  0.06464746     0.15000
H294        H  0.24125954  0.38865156  0.03096187     0.14800
C295        C  0.26109107  0.15605122  0.05934892    -0.18100
C296        C  0.26099873  0.17638347  0.07625951    -0.20200
C297        C  0.27744723  0.17311461  0.09429196     0.20400
C298        C  0.29514852  0.14988501  0.09512465    -0.03200
C299        C  0.29535952  0.12941315  0.07801598    -0.06200
C300        C  0.27766419  0.13212864  0.06017206     0.20700
C301        C  0.31191465  0.10518309  0.07895918     0.18900
C302        C  0.32899424  0.10248260  0.09692434    -0.17700
C303        C  0.32885689  0.12283550  0.11386827    -0.19900
C304        C  0.31158550  0.14622687  0.11317047     0.20300
C305        C  0.30960063  0.16524547  0.13031654    -0.32900
C306        C  0.29103565  0.18771225  0.12980045     0.01000
C307        C  0.27559859  0.19192194  0.11158330    -0.24300
C308        C  0.27510132  0.10951714  0.04371751    -0.28800
C309        C  0.28965640  0.08389108  0.04478639     0.06700
C310        C  0.30934432  0.08279364  0.06221492    -0.27500
H311        H  0.24744538  0.15843872  0.04571261     0.11400
H312        H  0.24741067  0.19414720  0.07531805     0.12600
H313        H  0.34179943  0.08405928  0.09797954     0.11600
H314        H  0.34167777  0.11976931  0.12762275     0.10900
H315        H  0.32182310  0.16177969  0.14417870     0.16300
H316        H  0.26137674  0.20916617  0.11090632     0.12200
H317        H  0.25998009  0.11048685  0.03027333     0.15000
H318        H  0.32013395  0.06271968  0.06318230     0.14800
C319        C  0.09983362  0.33906092  0.94091799    -0.18100
C320        C  0.08013022  0.31863415  0.92356719    -0.20200
C321        C  0.10237085  0.32387920  0.90607117     0.20400
C322        C  0.14502389  0.34911959  0.90619457    -0.03200
C323        C  0.16497939  0.36956448  0.92376337    -0.06200
C324        C  0.14210963  0.36495188  0.94106920     0.20700
C325        C  0.20755313  0.39564601  0.92379879     0.18900
C326        C  0.22979539  0.40033150  0.90636735    -0.17700
C327        C  0.20999197  0.38013197  0.88893750    -0.19900
C328        C  0.16758465  0.35480707  0.88863350     0.20300
C329        C  0.14726317  0.33584441  0.87097042    -0.32900
C330        C  0.10457012  0.31135264  0.87058811     0.01000
C331        C  0.08251723  0.30506857  0.88835252    -0.24300
C332        C  0.16160502  0.38760251  0.95794089    -0.28800
C333        C  0.20367414  0.41496017  0.95780492     0.06700
C334        C  0.22676605  0.41786839  0.94095111    -0.27500
H335        H  0.08188657  0.33516507  0.95411778     0.11400
H336        H  0.04738274  0.29928116  0.92373222     0.12600
H337        H  0.26245251  0.42023374  0.90609441     0.11600
H338        H  0.22779230  0.38478676  0.87559778     0.10900
H339        H  0.16467930  0.34088823  0.85744422     0.16300
H340        H  0.04968838  0.28621160  0.88835550     0.12200
H341        H  0.14369930  0.38516988  0.97094984     0.15000
H342        H  0.25910141  0.43921447  0.94071443     0.14800
C343        C  0.26658921  0.09113084  0.90473562    -0.18100
C344        C  0.28618353  0.11091449  0.88725804    -0.20200
C345        C  0.32841466  0.13725371  0.88710157     0.20400
C346        C  0.35089289  0.14449752  0.90488607    -0.03200
C347        C  0.33117325  0.12455115  0.92248659    -0.06200
C348        C  0.28886813  0.09729116  0.92236833     0.20700
C349        C  0.35412960  0.13082043  0.93999823     0.18900
C350        C  0.39611002  0.15785496  0.94004471    -0.17700
C351        C  0.41555910  0.17773620  0.92266899    -0.19900
C352        C  0.39333418  0.17078633  0.90497372     0.20300
C353        C  0.41311622  0.18897321  0.88727883    -0.32900
C354        C  0.39130197  0.18116451  0.86929515     0.01000
C355        C  0.34873616  0.15571561  0.86940850    -0.24300
C356        C  0.27011936  0.07543965  0.93959502    -0.28800
C357        C  0.29352462  0.08008973  0.95664649     0.06700
C358        C  0.33514472  0.10865365  0.95691218    -0.27500
H359        H  0.23411889  0.07037659  0.90434439     0.11400
H360        H  0.26840368  0.10509350  0.87376953     0.12600
H361        H  0.41406563  0.16301876  0.95341796     0.11600
H362        H  0.44814477  0.19797066  0.92297207     0.10900
H363        H  0.44580778  0.20871523  0.88751438     0.16300
H364        H  0.33153505  0.14953586  0.85568847     0.12200
H365        H  0.23808969  0.05313721  0.93929991     0.15000
H366        H  0.35320207  0.11240007  0.97009277     0.14800
O367        O  0.24261613  0.54086865  0.02108010    -0.73200
O368        O  0.19836978  0.95426448  0.98224320    -0.74200
O369        O  0.20317124  0.95915325  0.02445866    -0.62800
O370        O  0.24009860  0.53614136  0.97878517    -0.71200
O371        O  0.30088349  0.54236515  0.98105275    -0.70700
O372        O  0.26089396  0.95941686  0.02135830    -0.62000
O373        O  0.25886904  0.96020390  0.97906609    -0.74500
O374        O  0.30062845  0.54155088  0.02348622    -0.73300
Cu375      Cu  0.21898322  0.99749379  0.00167254     1.04600
Cu376      Cu  0.28245277  0.50099919  0.00122589     1.04300
C377        C  0.27763077  0.55430443  0.02894552     0.93000
C378        C  0.22134561  0.94416511  0.97395284     0.92200
C379        C  0.22654745  0.94678579  0.02972732     0.84300
C380        C  0.27711803  0.55175524  0.97302637     0.90600
C381        C  0.08345540  0.78607093  0.81667070     0.80000
N382        N  0.04207463  0.76480665  0.81666037    -0.78300
C383        C  0.02091853  0.75754004  0.83387364     0.82400
N384        N  0.04133643  0.77197740  0.85127866    -0.78300
C385        C  0.08271868  0.79377351  0.85158946     0.82500
N386        N  0.10359230  0.80056914  0.83420807    -0.80000
C387        C  0.41428923  0.70943318  0.81585982     0.80000
N388        N  0.39336130  0.69385300  0.83305031    -0.78300
C389        C  0.41363077  0.69870537  0.85050399     0.82400
N390        N  0.45504133  0.71948590  0.85060999    -0.78300
C391        C  0.47617178  0.73482464  0.83357777     0.82500
N392        N  0.45569233  0.72963467  0.81629409    -0.80000
O393        O  0.45491906  0.75252582  0.31354971    -0.73200
O394        O  0.04312151  0.79885327  0.35339370    -0.74200
O395        O  0.04102895  0.79741090  0.31115178    -0.62800
O396        O  0.45726107  0.75182345  0.35576132    -0.71200
O397        O  0.45846438  0.69756174  0.35274771    -0.70700
O398        O  0.04736005  0.74578808  0.31332508    -0.62000
O399        O  0.04454067  0.74462714  0.35562969    -0.74500
O400        O  0.46098593  0.70088388  0.31035915    -0.73300
Cu401      Cu  0.99896708  0.77700904  0.33348005     1.04600
Cu402      Cu  0.50293157  0.72028723  0.33299100     1.04300
C403        C  0.44444201  0.72024895  0.30517860     0.93000
C404        C  0.05729174  0.77954765  0.36129037     0.92200
C405        C  0.05780050  0.77845345  0.30557301     0.84300
C406        C  0.44442678  0.71676684  0.36100078     0.90600
C407        C  0.28653699  0.70524010  0.14847398     0.80000
N408        N  0.26756590  0.72602450  0.14855546    -0.78300
C409        C  0.26223840  0.74034643  0.16597099     0.82400
N410        N  0.27607640  0.73387239  0.18328126    -0.78300
C411        C  0.29542975  0.71358076  0.18337025     0.82500
N412        N  0.30042851  0.69942412  0.16593492    -0.80000
C413        C  0.20987169  0.79049425  0.18426373     0.80000
N414        N  0.20474409  0.80485484  0.16700367    -0.78300
C415        C  0.21788135  0.79867801  0.14940417     0.82400
N416        N  0.23621257  0.77739376  0.14910327    -0.78300
C417        C  0.24177464  0.76289191  0.16626894     0.82500
N418        N  0.22872356  0.76968552  0.18382739    -0.80000
O419        O  0.19959776  0.74581555  0.68578638    -0.73200
O420        O  0.24168905  0.70383520  0.64529374    -0.74200
O421        O  0.24161712  0.70509988  0.68768379    -0.62800
O422        O  0.20144697  0.74647461  0.64349008    -0.71200
O423        O  0.25949327  0.80291186  0.64626969    -0.70700
O424        O  0.30185111  0.75933634  0.68536262    -0.62000
O425        O  0.29963381  0.76045442  0.64305689    -0.74500
O426        O  0.25999579  0.79989731  0.68848832    -0.73300
Cu427      Cu  0.21897966  0.72332256  0.66552676     1.04600
Cu428      Cu  0.28232000  0.78258369  0.66578062     1.04300
C429        C  0.22285429  0.77868120  0.69399830     0.93000
C430        C  0.27657574  0.72514132  0.63741713     0.92200
C431        C  0.27880499  0.72627624  0.69327221     0.84300
C432        C  0.22450456  0.78199991  0.63833225     0.90600
C433        C  0.28680379  0.58312090  0.51858705     0.80000
N434        N  0.30088230  0.60162403  0.50088598    -0.78300
C435        C  0.29461559  0.58118634  0.48375531     0.82400
N436        N  0.27372260  0.54180642  0.48443673    -0.78300
C437        C  0.25957328  0.52285532  0.50195716     0.82500
N438        N  0.26629206  0.54358820  0.51902810    -0.80000
C439        C  0.21169479  0.92093002  0.51929615     0.80000
N440        N  0.19684347  0.90137748  0.50181254    -0.78300
C441        C  0.20183479  0.92075906  0.48452041     0.82400
N442        N  0.22219861  0.96017239  0.48483720    -0.78300
C443        C  0.23704840  0.98014367  0.50215658     0.82500
N444        N  0.23168008  0.96043772  0.51936549    -0.80000
C445        C  0.26433834  0.58802506  0.59069364    -0.18100
C446        C  0.26377258  0.60830695  0.60749254    -0.20200
C447        C  0.27899388  0.64831314  0.60649077     0.20400
C448        C  0.29627000  0.66845829  0.58862662    -0.03200
C449        C  0.29663253  0.64789949  0.57161369    -0.06200
C450        C  0.28002094  0.60741155  0.57261290     0.20700
C451        C  0.31230559  0.66758847  0.55347554     0.18900
C452        C  0.32864662  0.70786557  0.55267909    -0.17700
C453        C  0.32833876  0.72828165  0.56956577    -0.19900
C454        C  0.31164989  0.70878623  0.58754762     0.20300
C455        C  0.30824906  0.72838254  0.60416905    -0.32900
C456        C  0.28878964  0.70775964  0.62155620     0.01000
C457        C  0.27544426  0.66809098  0.62278027    -0.24300
C458        C  0.27818296  0.58674404  0.55540668    -0.28800
C459        C  0.29237379  0.60582643  0.53706144     0.07600
C460        C  0.31023295  0.64648046  0.53634191    -0.27500
H461        H  0.25166114  0.55699717  0.59173005     0.11400
H462        H  0.25057245  0.59252302  0.62115979     0.12600
H463        H  0.34095673  0.72347275  0.53888263     0.11600
H464        H  0.34033207  0.75918755  0.56843132     0.10900
H465        H  0.31824009  0.75890971  0.60313993     0.16300
H466        H  0.26064753  0.65220326  0.63623549     0.12200
H467        H  0.26468286  0.55557189  0.55625224     0.15000
H468        H  0.32152570  0.66165702  0.52234970     0.14800
C469        C  0.24357433  0.92026927  0.59054747    -0.18100
C470        C  0.24421182  0.90047760  0.60745673    -0.20200
C471        C  0.22562993  0.85994076  0.60712046     0.20400
C472        C  0.20508481  0.83891617  0.58983301    -0.03200
C473        C  0.20462925  0.85894887  0.57271202    -0.06200
C474        C  0.22440460  0.89983646  0.57302902     0.20700
C475        C  0.18550161  0.83818957  0.55513212     0.18900
C476        C  0.16599528  0.79751922  0.55500674    -0.17700
C477        C  0.16638475  0.77763428  0.57200171    -0.19900
C478        C  0.18636826  0.79806682  0.58940923     0.20300
C479        C  0.18974477  0.77869890  0.60603655    -0.32900
C480        C  0.21242072  0.79995036  0.62277913     0.01000
C481        C  0.22897516  0.84031697  0.62345215    -0.24300
C482        C  0.22559268  0.91971682  0.55571071    -0.28800
C483        C  0.20760189  0.89940319  0.53792184     0.06700
C484        C  0.18705631  0.85850954  0.53787200    -0.27500
H485        H  0.25876265  0.95163631  0.59105569     0.11400
H486        H  0.26001049  0.91696644  0.62067099     0.12600
H487        H  0.15101884  0.78111539  0.54164691     0.11600
H488        H  0.15181636  0.74632026  0.57138200     0.10900
H489        H  0.17715864  0.74761561  0.60542706     0.16300
H490        H  0.24617520  0.85676472  0.63642968     0.12200
H491        H  0.24140414  0.95113526  0.55602180     0.15000
H492        H  0.17288679  0.84242271  0.52431651     0.14800
C493        C  0.36781677  0.70194628  0.44405162    -0.18100
C494        C  0.38791500  0.72110213  0.42654669    -0.20200
C495        C  0.38891008  0.70003369  0.41007064     0.20400
C496        C  0.36831735  0.65910996  0.41108238    -0.03200
C497        C  0.34806645  0.63981375  0.42871802    -0.06200
C498        C  0.34834704  0.66137656  0.44538935     0.20700
C499        C  0.32861031  0.59902958  0.42983868     0.18900
C500        C  0.32865671  0.57779818  0.41324105    -0.17700
C501        C  0.34880344  0.59688755  0.39581841    -0.19900
C502        C  0.36917745  0.63749199  0.39472638     0.20300
C503        C  0.39190184  0.65687105  0.37787551    -0.32900
C504        C  0.41433804  0.69766560  0.37712179     0.01000
C505        C  0.41158619  0.71912685  0.39296748    -0.24300
C506        C  0.33004807  0.64207675  0.46322675    -0.28800
C507        C  0.31147892  0.60145624  0.46459793     0.06700
C508        C  0.31031622  0.58017987  0.44767354    -0.27500
H509        H  0.36814102  0.71894092  0.45667623     0.11400
H510        H  0.40341979  0.75248432  0.42604868     0.12600
H511        H  0.31374417  0.54646508  0.41385713     0.11600
H512        H  0.34916796  0.57993467  0.38333359     0.10900
H513        H  0.39355540  0.64012578  0.36561556     0.16300
H514        H  0.42897123  0.75056972  0.39250102     0.12200
H515        H  0.33089517  0.65878753  0.47610720     0.15000
H516        H  0.29609202  0.54891715  0.44846693     0.14800
C517        C  0.31437729  0.72909078  0.25634340    -0.18100
C518        C  0.33434240  0.72859877  0.27364840    -0.20200
C519        C  0.36174513  0.71538495  0.27304089     0.20400
C520        C  0.36803131  0.70115459  0.25503098    -0.03200
C521        C  0.34797736  0.70180629  0.23752915    -0.06200
C522        C  0.32157109  0.71645226  0.23815438     0.20700
C523        C  0.35547268  0.68911929  0.21931057     0.18900
C524        C  0.38194424  0.67478098  0.21886390    -0.17700
C525        C  0.40188057  0.67418546  0.23621572    -0.19900
C526        C  0.39569677  0.68790640  0.25432255     0.20300
C527        C  0.41826290  0.69064965  0.27144311    -0.32900
C528        C  0.41399154  0.70728081  0.28900969     0.01000
C529        C  0.38459137  0.71815902  0.28987917    -0.24300
C530        C  0.30372756  0.71928307  0.22051603    -0.28800
C531        C  0.31198755  0.70782422  0.20216259     0.06700
C532        C  0.33730561  0.69202948  0.20177812    -0.27500
H533        H  0.29402352  0.74019775  0.25710171     0.11400
H534        H  0.32912312  0.73947683  0.28741567     0.12600
H535        H  0.38789592  0.66477140  0.20500051     0.11600
H536        H  0.42290600  0.66385746  0.23536462     0.10900
H537        H  0.44118726  0.68261849  0.27066715     0.16300
H538        H  0.38110685  0.73084590  0.30345263     0.12200
H539        H  0.28403015  0.73115016  0.22107058     0.15000
H540        H  0.34384462  0.68294711  0.18776488     0.14800
C541        C  0.17320300  0.77808228  0.27475936    -0.18100
C542        C  0.19386476  0.77852240  0.25751744    -0.20200
C543        C  0.18504772  0.78921326  0.23918908     0.20400
C544        C  0.15636570  0.80118481  0.23839230    -0.03200
C545        C  0.13559922  0.80088413  0.25581642    -0.06200
C546        C  0.14345906  0.78840763  0.27395607     0.20700
C547        C  0.10561856  0.81126067  0.25488594     0.18900
C548        C  0.09774831  0.82310138  0.23666204    -0.17700
C549        C  0.11839896  0.82348089  0.21940254    -0.19900
C550        C  0.14723713  0.81196527  0.22006364     0.20300
C551        C  0.16602633  0.80975667  0.20260764    -0.32900
C552        C  0.19338782  0.79626283  0.20311666     0.01000
C553        C  0.20336903  0.78685362  0.22157100    -0.24300
C554        C  0.11986592  0.78437086  0.29070069    -0.28800
C555        C  0.08844569  0.79253289  0.28959018     0.06700
C556        C  0.08252402  0.80750032  0.27190963    -0.27500
H557        H  0.17970549  0.76864202  0.28862593     0.11400
H558        H  0.21598983  0.76953373  0.25842814     0.12600
H559        H  0.07488313  0.83115694  0.23565021     0.11600
H560        H  0.11112768  0.83193788  0.20543705     0.10900
H561        H  0.15812470  0.81725048  0.18851833     0.16300
H562        H  0.22470142  0.77686395  0.22219759     0.12200
H563        H  0.12445924  0.77285695  0.30437493     0.15000
H564        H  0.05796919  0.81332887  0.27097407     0.14800
C565        C  0.12834865  0.79755091  0.44603012    -0.18100
C566        C  0.10940688  0.77749193  0.42841057    -0.20200
C567        C  0.11022600  0.79775428  0.41127058     0.20400
C568        C  0.13147893  0.83876918  0.41179054    -0.03200
C569        C  0.15040482  0.85896476  0.42956597    -0.06200
C570        C  0.14838936  0.83824008  0.44684465     0.20700
C571        C  0.17032505  0.89984520  0.43016908     0.18900
C572        C  0.17207149  0.92025635  0.41294913    -0.17700
C573        C  0.15335860  0.90029945  0.39537323    -0.19900
C574        C  0.13253430  0.85962568  0.39476258     0.20300
C575        C  0.11098645  0.83948187  0.37771277    -0.32900
C576        C  0.08749259  0.79868849  0.37745194     0.01000
C577        C  0.08850779  0.77785095  0.39397586    -0.24300
C578        C  0.16572687  0.85851716  0.46470049    -0.28800
C579        C  0.18499003  0.89929760  0.46550791     0.06700
C580        C  0.18749587  0.91965628  0.44805239    -0.27500
H581        H  0.12668178  0.78117686  0.45913336     0.11400
H582        H  0.09337682  0.74606387  0.42831885     0.12600
H583        H  0.18735302  0.95164169  0.41316031     0.11600
H584        H  0.15438748  0.91665408  0.38237404     0.10900
H585        H  0.11064050  0.85569486  0.36492461     0.16300
H586        H  0.07026251  0.74641512  0.39388383     0.12200
H587        H  0.16373330  0.84245457  0.47799744     0.15000
H588        H  0.20225382  0.95100635  0.44839125     0.14800
C589        C  0.40033558  0.74650366  0.72797558    -0.18100
C590        C  0.41947741  0.74523182  0.74538054    -0.20200
C591        C  0.39634303  0.72513116  0.76209123     0.20400
C592        C  0.35346813  0.70539027  0.76117123    -0.03200
C593        C  0.33407901  0.70658208  0.74353498    -0.06200
C594        C  0.35777179  0.72768529  0.72701344     0.20700
C595        C  0.29118593  0.68781752  0.74265202     0.18900
C596        C  0.26814277  0.66717078  0.75932290    -0.17700
C597        C  0.28740407  0.66596475  0.77683322    -0.19900
C598        C  0.33008333  0.68538389  0.77800282     0.20300
C599        C  0.34985054  0.68590135  0.79578236    -0.32900
C600        C  0.39273321  0.70626085  0.79689369     0.01000
C601        C  0.41555020  0.72525016  0.77981286    -0.24300
C602        C  0.33871288  0.73114039  0.71009742    -0.28800
C603        C  0.29624202  0.71440403  0.70942288     0.06700
C604        C  0.27239814  0.69157315  0.72546526    -0.27500
H605        H  0.41887850  0.76283298  0.71538034     0.11400
H606        H  0.45242665  0.76048700  0.74587222     0.12600
H607        H  0.23521474  0.65254133  0.75895466     0.11600
H608        H  0.26892182  0.65033651  0.78956903     0.10900
H609        H  0.33187301  0.67105517  0.80879157     0.16300
H610        H  0.44851898  0.74098777  0.78034273     0.12200
H611        H  0.35724707  0.74850243  0.69771304     0.15000
H612        H  0.23966370  0.67883503  0.72508071     0.14800
C613        C  0.23189442  0.82939885  0.76214759    -0.18100
C614        C  0.21192872  0.82933759  0.77963937    -0.20200
C615        C  0.16948846  0.81275716  0.77982144     0.20400
C616        C  0.14717426  0.79727926  0.76202637    -0.03200
C617        C  0.16727178  0.79729571  0.74441054    -0.06200
C618        C  0.20978598  0.81285236  0.74452785     0.20700
C619        C  0.14450567  0.78022242  0.72690595     0.18900
C620        C  0.10232181  0.76479534  0.72685903    -0.17700
C621        C  0.08249248  0.76498356  0.74424973    -0.19900
C622        C  0.10453358  0.78048387  0.76196461     0.20300
C623        C  0.08438281  0.77827810  0.77972369    -0.32900
C624        C  0.10603784  0.79220927  0.79774440     0.01000
C625        C  0.14880627  0.81025253  0.79757254    -0.24300
C626        C  0.22894710  0.80976167  0.72733342    -0.28800
C627        C  0.20577062  0.79051603  0.71031504     0.06700
C628        C  0.16391243  0.77707485  0.71001954    -0.27500
H629        H  0.26452715  0.84155863  0.76253268     0.11400
H630        H  0.22958838  0.84153358  0.79313255     0.12600
H631        H  0.08450617  0.75173350  0.71348573     0.11600
H632        H  0.04976373  0.75216321  0.74395674     0.10900
H633        H  0.05154688  0.76468900  0.77953415     0.16300
H634        H  0.16591292  0.82132189  0.81130948     0.12200
H635        H  0.26118220  0.81987266  0.72764697     0.15000
H636        H  0.14602510  0.76245559  0.69685542     0.14800
C637        C  0.18117516  0.90553018  0.09864650    -0.18100
C638        C  0.18119344  0.88547396  0.11562502    -0.20200
C639        C  0.19577372  0.85990127  0.11467752     0.20400
C640        C  0.20973327  0.85387287  0.09638750    -0.03200
C641        C  0.20977670  0.87413045  0.07927857    -0.06200
C642        C  0.19576067  0.90037190  0.08044414     0.20700
C643        C  0.22514622  0.86909357  0.06117897     0.18900
C644        C  0.23905037  0.84304482  0.06012643    -0.17700
C645        C  0.23875116  0.82279761  0.07704262    -0.19900
C646        C  0.22469767  0.82841198  0.09528813     0.20300
C647        C  0.22630116  0.80971069  0.11252540    -0.32900
C648        C  0.21339488  0.81626310  0.13094103     0.01000
C649        C  0.19753512  0.84097174  0.13179358    -0.24300
C650        C  0.19821492  0.92213061  0.06361350    -0.28800
C651        C  0.21546200  0.91854584  0.04590650     0.06700
C652        C  0.22793153  0.89137129  0.04465653    -0.27500
H653        H  0.17040521  0.92558770  0.09983848     0.11400
H654        H  0.17034065  0.89038991  0.12957048     0.12600
H655        H  0.25083513  0.83883769  0.04629277     0.11600
H656        H  0.25020148  0.80327508  0.07593567     0.10900
H657        H  0.23837067  0.79065632  0.11162938     0.16300
H658        H  0.18735139  0.84624328  0.14585937     0.12200
H659        H  0.18916838  0.94351781  0.06464745     0.15000
H660        H  0.24125961  0.88865164  0.03096188     0.14800
C661        C  0.26109102  0.65605115  0.05934892    -0.18100
C662        C  0.26099865  0.67638341  0.07625951    -0.20200
C663        C  0.27744723  0.67311456  0.09429196     0.20400
C664        C  0.29514854  0.64988501  0.09512464    -0.03200
C665        C  0.29535955  0.62941315  0.07801597    -0.06200
C666        C  0.27766416  0.63212862  0.06017205     0.20700
C667        C  0.31191469  0.60518312  0.07895916     0.18900
C668        C  0.32899432  0.60248263  0.09692432    -0.17700
C669        C  0.32885696  0.62283555  0.11386825    -0.19900
C670        C  0.31158557  0.64622689  0.11317045     0.20300
C671        C  0.30960070  0.66524551  0.13031652    -0.32900
C672        C  0.29103571  0.68771227  0.12980044     0.01000
C673        C  0.27559858  0.69192193  0.11158329    -0.24300
C674        C  0.27510130  0.60951711  0.04371751    -0.28800
C675        C  0.28965640  0.58389107  0.04478638     0.06700
C676        C  0.30934437  0.58279366  0.06221490    -0.27500
H677        H  0.24744523  0.65843865  0.04571258     0.11400
H678        H  0.24741062  0.69414703  0.07531807     0.12600
H679        H  0.34179948  0.58405939  0.09797951     0.11600
H680        H  0.34167789  0.61976936  0.12762274     0.10900
H681        H  0.32182321  0.66177976  0.14417868     0.16300
H682        H  0.26137676  0.70916607  0.11090633     0.12200
H683        H  0.25998002  0.61048680  0.03027332     0.15000
H684        H  0.32013400  0.56271976  0.06318228     0.14800
C685        C  0.09983363  0.83906085  0.94091802    -0.18100
C686        C  0.08013019  0.81863406  0.92356722    -0.20200
C687        C  0.10237086  0.82387918  0.90607119     0.20400
C688        C  0.14502386  0.84911957  0.90619458    -0.03200
C689        C  0.16497937  0.86956447  0.92376339    -0.06200
C690        C  0.14210961  0.86495184  0.94106923     0.20700
C691        C  0.20755310  0.89564603  0.92379879     0.18900
C692        C  0.22979536  0.90033153  0.90636735    -0.17700
C693        C  0.20999194  0.88013200  0.88893750    -0.19900
C694        C  0.16758462  0.85480709  0.88863351     0.20300
C695        C  0.14726314  0.83584445  0.87097042    -0.32900
C696        C  0.10457010  0.81135269  0.87058811     0.01000
C697        C  0.08251717  0.80506855  0.88835253    -0.24300
C698        C  0.16160501  0.88760251  0.95794090    -0.28800
C699        C  0.20367411  0.91496021  0.95780492     0.06700
C700        C  0.22676602  0.91786843  0.94095111    -0.27500
H701        H  0.08188649  0.83516493  0.95411786     0.11400
H702        H  0.04738285  0.79928112  0.92373225     0.12600
H703        H  0.26245248  0.92023379  0.90609441     0.11600
H704        H  0.22779224  0.88478680  0.87559780     0.10900
H705        H  0.16467923  0.84088829  0.85744425     0.16300
H706        H  0.04968852  0.78621168  0.88835551     0.12200
H707        H  0.14369926  0.88516987  0.97094987     0.15000
H708        H  0.25910139  0.93921455  0.94071442     0.14800
C709        C  0.26658922  0.59113082  0.90473561    -0.18100
C710        C  0.28618349  0.61091444  0.88725803    -0.20200
C711        C  0.32841466  0.63725367  0.88710157     0.20400
C712        C  0.35089286  0.64449746  0.90488606    -0.03200
C713        C  0.33117322  0.62455110  0.92248659    -0.06200
C714        C  0.28886806  0.59729108  0.92236832     0.20700
C715        C  0.35412954  0.63082036  0.93999822     0.18900
C716        C  0.39610998  0.65785488  0.94004472    -0.17700
C717        C  0.41555906  0.67773611  0.92266899    -0.19900
C718        C  0.39333416  0.67078627  0.90497373     0.20300
C719        C  0.41311620  0.68897315  0.88727883    -0.32900
C720        C  0.39130197  0.68116447  0.86929515     0.01000
C721        C  0.34873615  0.65571557  0.86940850    -0.24300
C722        C  0.27011933  0.57543959  0.93959501    -0.28800
C723        C  0.29352456  0.58008965  0.95664648     0.06700
C724        C  0.33514467  0.60865359  0.95691218    -0.27500
H725        H  0.23411863  0.57037642  0.90434437     0.11400
H726        H  0.26840375  0.60509352  0.87376956     0.12600
H727        H  0.41406555  0.66301867  0.95341795     0.11600
H728        H  0.44814476  0.69797059  0.92297208     0.10900
H729        H  0.44580779  0.70871519  0.88751439     0.16300
H730        H  0.33153507  0.64953584  0.85568847     0.12200
H731        H  0.23808951  0.55313705  0.93929989     0.15000
H732        H  0.35320197  0.61239999  0.97009274     0.14800
O733        O  0.74261612  0.04086866  0.02108009    -0.73200
O734        O  0.69836978  0.45426443  0.98224322    -0.74200
O735        O  0.70317126  0.45915323  0.02445867    -0.62800
O736        O  0.74009861  0.03614141  0.97878517    -0.71200
O737        O  0.80088350  0.04236519  0.98105275    -0.70700
O738        O  0.76089399  0.45941684  0.02135830    -0.62000
O739        O  0.75886904  0.46020387  0.97906609    -0.74500
O740        O  0.80062845  0.04155091  0.02348622    -0.73300
Cu741      Cu  0.71898321  0.49749375  0.00167254     1.04600
Cu742      Cu  0.78245276  0.00099922  0.00122588     1.04300
C743        C  0.77763076  0.05430444  0.02894552     0.93000
C744        C  0.72134562  0.44416507  0.97395284     0.92200
C745        C  0.72654747  0.44678577  0.02972732     0.84300
C746        C  0.77711804  0.05175529  0.97302637     0.90600
C747        C  0.58345540  0.28607089  0.81667070     0.80000
N748        N  0.54207462  0.26480662  0.81666038    -0.78300
C749        C  0.52091853  0.25754001  0.83387364     0.82400
N750        N  0.54133643  0.27197736  0.85127867    -0.78300
C751        C  0.58271869  0.29377347  0.85158947     0.82500
N752        N  0.60359230  0.30056909  0.83420808    -0.80000
C753        C  0.91428924  0.20943320  0.81585982     0.80000
N754        N  0.89336130  0.19385301  0.83305030    -0.78300
C755        C  0.91363078  0.19870538  0.85050399     0.82400
N756        N  0.95504134  0.21948589  0.85060999    -0.78300
C757        C  0.97617178  0.23482464  0.83357777     0.82500
N758        N  0.95569234  0.22963468  0.81629408    -0.80000
O759        O  0.95491907  0.25252580  0.31354971    -0.73200
O760        O  0.54312150  0.29885329  0.35339370    -0.74200
O761        O  0.54102893  0.29741092  0.31115178    -0.62800
O762        O  0.95726109  0.25182344  0.35576132    -0.71200
O763        O  0.95846441  0.19756174  0.35274771    -0.70700
O764        O  0.54736004  0.24578810  0.31332508    -0.62000
O765        O  0.54454067  0.24462717  0.35562969    -0.74500
O766        O  0.96098597  0.20088388  0.31035915    -0.73300
Cu767      Cu  0.49896706  0.27700906  0.33348004     1.04600
Cu768      Cu  0.00293161  0.22028725  0.33299101     1.04300
C769        C  0.94444204  0.22024893  0.30517860     0.93000
C770        C  0.55729175  0.27954767  0.36129037     0.92200
C771        C  0.55780049  0.27845347  0.30557301     0.84300
C772        C  0.94442681  0.21676685  0.36100079     0.90600
C773        C  0.78653696  0.20524008  0.14847399     0.80000
N774        N  0.76756586  0.22602448  0.14855547    -0.78300
C775        C  0.76223838  0.24034641  0.16597100     0.82400
N776        N  0.77607640  0.23387239  0.18328127    -0.78300
C777        C  0.79542975  0.21358076  0.18337025     0.82500
N778        N  0.80042849  0.19942411  0.16593493    -0.80000
C779        C  0.70987174  0.29049430  0.18426374     0.80000
N780        N  0.70474414  0.30485490  0.16700368    -0.78300
C781        C  0.71788138  0.29867805  0.14940418     0.82400
N782        N  0.73621257  0.27739377  0.14910329    -0.78300
C783        C  0.74177464  0.26289192  0.16626895     0.82500
N784        N  0.72872358  0.26968556  0.18382741    -0.80000
O785        O  0.69959770  0.24581552  0.68578636    -0.73200
O786        O  0.74168906  0.20383520  0.64529374    -0.74200
O787        O  0.74161710  0.20509989  0.68768379    -0.62800
O788        O  0.70144696  0.24647459  0.64349006    -0.71200
O789        O  0.75949323  0.30291185  0.64626970    -0.70700
O790        O  0.80185109  0.25933634  0.68536261    -0.62000
O791        O  0.79963379  0.26045444  0.64305688    -0.74500
O792        O  0.75999574  0.29989727  0.68848833    -0.73300
Cu793      Cu  0.71897965  0.22332255  0.66552675     1.04600
Cu794      Cu  0.78231997  0.28258368  0.66578062     1.04300
C795        C  0.72285424  0.27868116  0.69399830     0.93000
C796        C  0.77657574  0.22514133  0.63741712     0.92200
C797        C  0.77880497  0.22627625  0.69327220     0.84300
C798        C  0.72450453  0.28199990  0.63833225     0.90600
C799        C  0.78680374  0.08312089  0.51858705     0.80000
N800        N  0.80088227  0.10162404  0.50088598    -0.78300
C801        C  0.79461557  0.08118634  0.48375531     0.82400
N802        N  0.77372259  0.04180642  0.48443673    -0.78300
C803        C  0.75957325  0.02285532  0.50195716     0.82500
N804        N  0.76629201  0.04358820  0.51902809    -0.80000
C805        C  0.71169484  0.42093003  0.51929615     0.80000
N806        N  0.69684348  0.40137749  0.50181254    -0.78300
C807        C  0.70183475  0.42075906  0.48452042     0.82400
N808        N  0.72219855  0.46017240  0.48483720    -0.78300
C809        C  0.73704838  0.48014368  0.50215658     0.82500
N810        N  0.73168011  0.46043773  0.51936549    -0.80000
C811        C  0.76433842  0.08802509  0.59069365    -0.18100
C812        C  0.76377267  0.10830699  0.60749256    -0.20200
C813        C  0.77899395  0.14831317  0.60649078     0.20400
C814        C  0.79627005  0.16845831  0.58862663    -0.03200
C815        C  0.79663257  0.14789951  0.57161369    -0.06200
C816        C  0.78002099  0.10741159  0.57261291     0.20700
C817        C  0.81230560  0.16758848  0.55347554     0.18900
C818        C  0.82864663  0.20786558  0.55267909    -0.17700
C819        C  0.82833880  0.22828167  0.56956577    -0.19900
C820        C  0.81164994  0.20878626  0.58754763     0.20300
C821        C  0.80824909  0.22838256  0.60416905    -0.32900
C822        C  0.78878966  0.20775966  0.62155619     0.01000
C823        C  0.77544430  0.16809100  0.62278028    -0.24300
C824        C  0.77818296  0.08674402  0.55540669    -0.28800
C825        C  0.79237377  0.10582645  0.53706143     0.07600
C826        C  0.81023290  0.14648045  0.53634192    -0.27500
H827        H  0.75166126  0.05699726  0.59173007     0.11400
H828        H  0.75057258  0.09252309  0.62115977     0.12600
H829        H  0.84095674  0.22347278  0.53888261     0.11600
H830        H  0.84033211  0.25918759  0.56843132     0.10900
H831        H  0.81824013  0.25890975  0.60313993     0.16300
H832        H  0.76064761  0.15220332  0.63623546     0.12200
H833        H  0.76468296  0.05557208  0.55625224     0.15000
H834        H  0.82152566  0.16165705  0.52234966     0.14800
C835        C  0.74357441  0.42026931  0.59054747    -0.18100
C836        C  0.74421188  0.40047760  0.60745673    -0.20200
C837        C  0.72562997  0.35994077  0.60712045     0.20400
C838        C  0.70508485  0.33891617  0.58983300    -0.03200
C839        C  0.70462930  0.35894890  0.57271201    -0.06200
C840        C  0.72440466  0.39983647  0.57302902     0.20700
C841        C  0.68550166  0.33818959  0.55513212     0.18900
C842        C  0.66599529  0.29751924  0.55500674    -0.17700
C843        C  0.66638474  0.27763428  0.57200171    -0.19900
C844        C  0.68636828  0.29806684  0.58940923     0.20300
C845        C  0.68974475  0.27869888  0.60603654    -0.32900
C846        C  0.71242071  0.29995036  0.62277912     0.01000
C847        C  0.72897518  0.34031697  0.62345215    -0.24300
C848        C  0.72559277  0.41971685  0.55571071    -0.28800
C849        C  0.70760196  0.39940321  0.53792184     0.06700
C850        C  0.68705637  0.35850956  0.53787200    -0.27500
H851        H  0.75876268  0.45163622  0.59105569     0.11400
H852        H  0.76001056  0.41696647  0.62067099     0.12600
H853        H  0.65101883  0.28111540  0.54164691     0.11600
H854        H  0.65181636  0.24632034  0.57138200     0.10900
H855        H  0.67715866  0.24761572  0.60542706     0.16300
H856        H  0.74617519  0.35676468  0.63642965     0.12200
H857        H  0.74140420  0.45113521  0.55602179     0.15000
H858        H  0.67288685  0.34242274  0.52431651     0.14800
C859        C  0.86781679  0.20194630  0.44405163    -0.18100
C860        C  0.88791504  0.22110215  0.42654670    -0.20200
C861        C  0.88891010  0.20003369  0.41007065     0.20400
C862        C  0.86831735  0.15910997  0.41108238    -0.03200
C863        C  0.84806643  0.13981377  0.42871802    -0.06200
C864        C  0.84834704  0.16137658  0.44538934     0.20700
C865        C  0.82861028  0.09902961  0.42983868     0.18900
C866        C  0.82865664  0.07779818  0.41324105    -0.17700
C867        C  0.84880340  0.09688756  0.39581841    -0.19900
C868        C  0.86917743  0.13749199  0.39472638     0.20300
C869        C  0.89190186  0.15687106  0.37787552    -0.32900
C870        C  0.91433806  0.19766560  0.37712180     0.01000
C871        C  0.91158625  0.21912688  0.39296749    -0.24300
C872        C  0.83004806  0.14207677  0.46322676    -0.28800
C873        C  0.81147890  0.10145626  0.46459793     0.06700
C874        C  0.81031617  0.08017987  0.44767354    -0.27500
H875        H  0.86814105  0.21894089  0.45667619     0.11400
H876        H  0.90341983  0.25248432  0.42604870     0.12600
H877        H  0.81374413  0.04646515  0.41385712     0.11600
H878        H  0.84916789  0.07993466  0.38333359     0.10900
H879        H  0.89355540  0.14012578  0.36561557     0.16300
H880        H  0.92897122  0.25056960  0.39250103     0.12200
H881        H  0.83089518  0.15878750  0.47610718     0.15000
H882        H  0.79609202  0.04891730  0.44846692     0.14800
C883        C  0.81437730  0.22909072  0.25634340    -0.18100
C884        C  0.83434238  0.22859870  0.27364841    -0.20200
C885        C  0.86174514  0.21538490  0.27304089     0.20400
C886        C  0.86803135  0.20115458  0.25503098    -0.03200
C887        C  0.84797741  0.20180629  0.23752914    -0.06200
C888        C  0.82157110  0.21645226  0.23815439     0.20700
C889        C  0.85547273  0.18911932  0.21931056     0.18900
C890        C  0.88194430  0.17478100  0.21886389    -0.17700
C891        C  0.90188062  0.17418547  0.23621571    -0.19900
C892        C  0.89569681  0.18790640  0.25432254     0.20300
C893        C  0.91826294  0.19064965  0.27144310    -0.32900
C894        C  0.91399156  0.20728078  0.28900968     0.01000
C895        C  0.88459137  0.21815896  0.28987917    -0.24300
C896        C  0.80372759  0.21928306  0.22051603    -0.28800
C897        C  0.81198759  0.20782424  0.20216259     0.06700
C898        C  0.83730567  0.19202953  0.20177811    -0.27500
H899        H  0.79402338  0.24019774  0.25710173     0.11400
H900        H  0.82912311  0.23947669  0.28741565     0.12600
H901        H  0.88789598  0.16477143  0.20500050     0.11600
H902        H  0.92290604  0.16385746  0.23536460     0.10900
H903        H  0.94118730  0.18261850  0.27066714     0.16300
H904        H  0.88110683  0.23084581  0.30345264     0.12200
H905        H  0.78403010  0.23115017  0.22107059     0.15000
H906        H  0.84384469  0.18294718  0.18776488     0.14800
C907        C  0.67320300  0.27808231  0.27475937    -0.18100
C908        C  0.69386475  0.27852241  0.25751744    -0.20200
C909        C  0.68504771  0.28921329  0.23918908     0.20400
C910        C  0.65636572  0.30118486  0.23839230    -0.03200
C911        C  0.63559923  0.30088417  0.25581642    -0.06200
C912        C  0.64345906  0.28840767  0.27395606     0.20700
C913        C  0.60561855  0.31126073  0.25488593     0.18900
C914        C  0.59774836  0.32310145  0.23666204    -0.17700
C915        C  0.61839901  0.32348098  0.21940254    -0.19900
C916        C  0.64723717  0.31196534  0.22006365     0.20300
C917        C  0.66602638  0.30975675  0.20260764    -0.32900
C918        C  0.69338786  0.29626289  0.20311667     0.01000
C919        C  0.70336904  0.28685364  0.22157101    -0.24300
C920        C  0.61986593  0.28437090  0.29070070    -0.28800
C921        C  0.58844567  0.29253293  0.28959017     0.06700
C922        C  0.58252404  0.30750034  0.27190963    -0.27500
H923        H  0.67970548  0.26864206  0.28862592     0.11400
H924        H  0.71598976  0.26953375  0.25842815     0.12600
H925        H  0.57488309  0.33115705  0.23565021     0.11600
H926        H  0.61112777  0.33193797  0.20543707     0.10900
H927        H  0.65812479  0.31725058  0.18851835     0.16300
H928        H  0.72470139  0.27686396  0.22219760     0.12200
H929        H  0.62445923  0.27285704  0.30437490     0.15000
H930        H  0.55796904  0.31332894  0.27097406     0.14800
C931        C  0.62834864  0.29755094  0.44603012    -0.18100
C932        C  0.60940690  0.27749193  0.42841056    -0.20200
C933        C  0.61022605  0.29775434  0.41127057     0.20400
C934        C  0.63147895  0.33876920  0.41179053    -0.03200
C935        C  0.65040481  0.35896478  0.42956597    -0.06200
C936        C  0.64838932  0.33824008  0.44684466     0.20700
C937        C  0.67032505  0.39984522  0.43016909     0.18900
C938        C  0.67207152  0.42025638  0.41294913    -0.17700
C939        C  0.65335864  0.40029948  0.39537323    -0.19900
C940        C  0.63253432  0.35962572  0.39476257     0.20300
C941        C  0.61098646  0.33948190  0.37771277    -0.32900
C942        C  0.58749261  0.29868855  0.37745193     0.01000
C943        C  0.58850782  0.27785095  0.39397585    -0.24300
C944        C  0.66572680  0.35851716  0.46470050    -0.28800
C945        C  0.68498997  0.39929761  0.46550791     0.06700
C946        C  0.68749585  0.41965629  0.44805240    -0.27500
H947        H  0.62668173  0.28117682  0.45913337     0.11400
H948        H  0.59337694  0.24606404  0.42831883     0.12600
H949        H  0.68735306  0.45164170  0.41316032     0.11600
H950        H  0.65438754  0.41665415  0.38237402     0.10900
H951        H  0.61064050  0.35569494  0.36492458     0.16300
H952        H  0.57026269  0.24641535  0.39388380     0.12200
H953        H  0.66373320  0.34245456  0.47799745     0.15000
H954        H  0.70225381  0.45100638  0.44839126     0.14800
C955        C  0.90033557  0.24650376  0.72797560    -0.18100
C956        C  0.91947745  0.24523194  0.74538055    -0.20200
C957        C  0.89634303  0.22513122  0.76209123     0.20400
C958        C  0.85346814  0.20539032  0.76117123    -0.03200
C959        C  0.83407902  0.20658212  0.74353498    -0.06200
C960        C  0.85777181  0.22768538  0.72701344     0.20700
C961        C  0.79118594  0.18781752  0.74265201     0.18900
C962        C  0.76814278  0.16717074  0.75932289    -0.17700
C963        C  0.78740408  0.16596471  0.77683320    -0.19900
C964        C  0.83008334  0.18538390  0.77800282     0.20300
C965        C  0.84985055  0.18590136  0.79578236    -0.32900
C966        C  0.89273322  0.20626088  0.79689369     0.01000
C967        C  0.91555022  0.22525022  0.77981287    -0.24300
C968        C  0.83871287  0.23114045  0.71009744    -0.28800
C969        C  0.79624202  0.21440406  0.70942288     0.06700
C970        C  0.77239814  0.19157313  0.72546525    -0.27500
H971        H  0.91887859  0.26283318  0.71538032     0.11400
H972        H  0.95242654  0.26048707  0.74587225     0.12600
H973        H  0.73521471  0.15254123  0.75895464     0.11600
H974        H  0.76892182  0.15033644  0.78956901     0.10900
H975        H  0.83187300  0.17105515  0.80879157     0.16300
H976        H  0.94851896  0.24098782  0.78034274     0.12200
H977        H  0.85724715  0.24850260  0.69771301     0.15000
H978        H  0.73966370  0.17883498  0.72508069     0.14800
C979        C  0.73189441  0.32939882  0.76214759    -0.18100
C980        C  0.71192869  0.32933755  0.77963938    -0.20200
C981        C  0.66948843  0.31275711  0.77982143     0.20400
C982        C  0.64717422  0.29727922  0.76202638    -0.03200
C983        C  0.66727174  0.29729566  0.74441054    -0.06200
C984        C  0.70978592  0.31285230  0.74452785     0.20700
C985        C  0.64450560  0.28022235  0.72690595     0.18900
C986        C  0.60232178  0.26479531  0.72685905    -0.17700
C987        C  0.58249243  0.26498352  0.74424973    -0.19900
C988        C  0.60453355  0.28048384  0.76196461     0.20300
C989        C  0.58438279  0.27827808  0.77972370    -0.32900
C990        C  0.60603782  0.29220922  0.79774441     0.01000
C991        C  0.64880626  0.31025249  0.79757254    -0.24300
C992        C  0.72894707  0.30976162  0.72733342    -0.28800
C993        C  0.70577054  0.29051596  0.71031504     0.06700
C994        C  0.66391238  0.27707480  0.71001955    -0.27500
H995        H  0.76452698  0.34155854  0.76253268     0.11400
H996        H  0.72958835  0.34153353  0.79313253     0.12600
H997        H  0.58450603  0.25173340  0.71348567     0.11600
H998        H  0.54976376  0.25216322  0.74395676     0.10900
H999        H  0.55154682  0.26468896  0.77953416     0.16300
H1000       H  0.66591287  0.32132182  0.81130946     0.12200
H1001       H  0.76118202  0.31987257  0.72764696     0.15000
H1002       H  0.64602496  0.26245547  0.69685538     0.14800
C1003       C  0.68117518  0.40553017  0.09864649    -0.18100
C1004       C  0.68119344  0.38547398  0.11562503    -0.20200
C1005       C  0.69577371  0.35990125  0.11467751     0.20400
C1006       C  0.70973321  0.35387283  0.09638750    -0.03200
C1007       C  0.70977665  0.37413038  0.07927857    -0.06200
C1008       C  0.69576064  0.40037189  0.08044414     0.20700
C1009       C  0.72514614  0.36909349  0.06117896     0.18900
C1010       C  0.73905025  0.34304470  0.06012642    -0.17700
C1011       C  0.73875102  0.32279751  0.07704262    -0.19900
C1012       C  0.72469759  0.32841189  0.09528813     0.20300
C1013       C  0.72630110  0.30971067  0.11252540    -0.32900
C1014       C  0.71339488  0.31626311  0.13094103     0.01000
C1015       C  0.69753512  0.34097176  0.13179359    -0.24300
C1016       C  0.69821494  0.42213058  0.06361350    -0.28800
C1017       C  0.71546200  0.41854582  0.04590650     0.06700
C1018       C  0.72793149  0.39137123  0.04465652    -0.27500
H1019       H  0.67040517  0.42558785  0.09983849     0.11400
H1020       H  0.67034074  0.39038991  0.12957043     0.12600
H1021       H  0.75083498  0.33883755  0.04629276     0.11600
H1022       H  0.75020135  0.30327490  0.07593567     0.10900
H1023       H  0.73837065  0.29065619  0.11162938     0.16300
H1024       H  0.68735146  0.34624331  0.14585935     0.12200
H1025       H  0.68916840  0.44351789  0.06464745     0.15000
H1026       H  0.74125958  0.38865156  0.03096185     0.14800
C1027       C  0.76109102  0.15605118  0.05934892    -0.18100
C1028       C  0.76099870  0.17638344  0.07625951    -0.20200
C1029       C  0.77744723  0.17311460  0.09429196     0.20400
C1030       C  0.79514853  0.14988501  0.09512464    -0.03200
C1031       C  0.79535952  0.12941314  0.07801598    -0.06200
C1032       C  0.77766415  0.13212861  0.06017206     0.20700
C1033       C  0.81191465  0.10518309  0.07895916     0.18900
C1034       C  0.82899426  0.10248260  0.09692433    -0.17700
C1035       C  0.82885691  0.12283552  0.11386825    -0.19900
C1036       C  0.81158554  0.14622688  0.11317046     0.20300
C1037       C  0.80960066  0.16524548  0.13031653    -0.32900
C1038       C  0.79103568  0.18771226  0.12980044     0.01000
C1039       C  0.77559861  0.19192194  0.11158329    -0.24300
C1040       C  0.77510128  0.10951711  0.04371751    -0.28800
C1041       C  0.78965638  0.08389107  0.04478638     0.06700
C1042       C  0.80934432  0.08279364  0.06221491    -0.27500
H1043       H  0.74744530  0.15843865  0.04571261     0.11400
H1044       H  0.74741059  0.19414721  0.07531806     0.12600
H1045       H  0.84179941  0.08405935  0.09797952     0.11600
H1046       H  0.84167785  0.11976931  0.12762277     0.10900
H1047       H  0.82182316  0.16177971  0.14417871     0.16300
H1048       H  0.76137672  0.20916619  0.11090632     0.12200
H1049       H  0.75997999  0.11048681  0.03027330     0.15000
H1050       H  0.82013396  0.06271969  0.06318229     0.14800
C1051       C  0.59983363  0.33906088  0.94091800    -0.18100
C1052       C  0.58013020  0.31863409  0.92356721    -0.20200
C1053       C  0.60237085  0.32387919  0.90607118     0.20400
C1054       C  0.64502386  0.34911959  0.90619457    -0.03200
C1055       C  0.66497937  0.36956448  0.92376338    -0.06200
C1056       C  0.64210960  0.36495185  0.94106923     0.20700
C1057       C  0.70755311  0.39564602  0.92379879     0.18900
C1058       C  0.72979536  0.40033153  0.90636735    -0.17700
C1059       C  0.70999194  0.38013201  0.88893750    -0.19900
C1060       C  0.66758462  0.35480710  0.88863350     0.20300
C1061       C  0.64726314  0.33584445  0.87097042    -0.32900
C1062       C  0.60457010  0.31135266  0.87058811     0.01000
C1063       C  0.58251719  0.30506854  0.88835253    -0.24300
C1064       C  0.66160502  0.38760250  0.95794089    -0.28800
C1065       C  0.70367411  0.41496017  0.95780493     0.06700
C1066       C  0.72676603  0.41786839  0.94095112    -0.27500
H1067       H  0.58188647  0.33516497  0.95411787     0.11400
H1068       H  0.54738282  0.29928113  0.92373224     0.12600
H1069       H  0.76245252  0.42023380  0.90609441     0.11600
H1070       H  0.72779225  0.38478681  0.87559778     0.10900
H1071       H  0.66467927  0.34088830  0.85744422     0.16300
H1072       H  0.54968844  0.28621161  0.88835551     0.12200
H1073       H  0.64369920  0.38516985  0.97094991     0.15000
H1074       H  0.75910141  0.43921450  0.94071444     0.14800
C1075       C  0.76658922  0.09113085  0.90473562    -0.18100
C1076       C  0.78618353  0.11091448  0.88725803    -0.20200
C1077       C  0.82841467  0.13725369  0.88710157     0.20400
C1078       C  0.85089289  0.14449750  0.90488607    -0.03200
C1079       C  0.83117324  0.12455115  0.92248659    -0.06200
C1080       C  0.78886811  0.09729115  0.92236832     0.20700
C1081       C  0.85412958  0.13082042  0.93999823     0.18900
C1082       C  0.89611000  0.15785491  0.94004471    -0.17700
C1083       C  0.91555911  0.17773614  0.92266898    -0.19900
C1084       C  0.89333418  0.17078628  0.90497372     0.20300
C1085       C  0.91311623  0.18897314  0.88727882    -0.32900
C1086       C  0.89130199  0.18116448  0.86929515     0.01000
C1087       C  0.84873617  0.15571559  0.86940850    -0.24300
C1088       C  0.77011933  0.07543964  0.93959502    -0.28800
C1089       C  0.79352459  0.08008972  0.95664649     0.06700
C1090       C  0.83514469  0.10865365  0.95691219    -0.27500
H1091       H  0.73411881  0.07037656  0.90434438     0.11400
H1092       H  0.76840372  0.10509351  0.87376954     0.12600
H1093       H  0.91406563  0.16301872  0.95341796     0.11600
H1094       H  0.94814472  0.19797054  0.92297206     0.10900
H1095       H  0.94580783  0.20871517  0.88751438     0.16300
H1096       H  0.83153508  0.14953585  0.85568847     0.12200
H1097       H  0.73808969  0.05313722  0.93929990     0.15000
H1098       H  0.85320200  0.11240006  0.97009276     0.14800
O1099       O  0.74261611  0.54086864  0.02108011    -0.73200
O1100       O  0.69836980  0.95426445  0.98224320    -0.74200
O1101       O  0.70317124  0.95915325  0.02445866    -0.62800
O1102       O  0.74009857  0.53614139  0.97878518    -0.71200
O1103       O  0.80088346  0.54236516  0.98105275    -0.70700
O1104       O  0.76089396  0.95941685  0.02135830    -0.62000
O1105       O  0.75886905  0.96020389  0.97906608    -0.74500
O1106       O  0.80062845  0.54155090  0.02348622    -0.73300
Cu1107     Cu  0.71898322  0.99749377  0.00167253     1.04600
Cu1108     Cu  0.78245275  0.50099920  0.00122589     1.04300
C1109       C  0.77763076  0.55430443  0.02894552     0.93000
C1110       C  0.72134563  0.94416509  0.97395283     0.92200
C1111       C  0.72654745  0.94678579  0.02972732     0.84300
C1112       C  0.77711800  0.55175526  0.97302638     0.90600
C1113       C  0.58345541  0.78607093  0.81667070     0.80000
N1114       N  0.54207463  0.76480666  0.81666038    -0.78300
C1115       C  0.52091854  0.75754005  0.83387364     0.82400
N1116       N  0.54133644  0.77197738  0.85127867    -0.78300
C1117       C  0.58271870  0.79377348  0.85158947     0.82500
N1118       N  0.60359231  0.80056911  0.83420807    -0.80000
C1119       C  0.91428923  0.70943318  0.81585982     0.80000
N1120       N  0.89336129  0.69385300  0.83305031    -0.78300
C1121       C  0.91363076  0.69870537  0.85050399     0.82400
N1122       N  0.95504133  0.71948589  0.85060999    -0.78300
C1123       C  0.97617177  0.73482463  0.83357777     0.82500
N1124       N  0.95569232  0.72963465  0.81629408    -0.80000
O1125       O  0.95491908  0.75252580  0.31354971    -0.73200
O1126       O  0.54312150  0.79885326  0.35339370    -0.74200
O1127       O  0.54102894  0.79741091  0.31115178    -0.62800
O1128       O  0.95726109  0.75182343  0.35576133    -0.71200
O1129       O  0.95846440  0.69756173  0.35274771    -0.70700
O1130       O  0.54736001  0.74578807  0.31332507    -0.62000
O1131       O  0.54454066  0.74462714  0.35562968    -0.74500
O1132       O  0.96098597  0.70088388  0.31035914    -0.73300
Cu1133     Cu  0.49896706  0.77700905  0.33348004     1.04600
Cu1134     Cu  0.00293160  0.72028723  0.33299101     1.04300
C1135       C  0.94444204  0.72024894  0.30517860     0.93000
C1136       C  0.55729174  0.77954764  0.36129036     0.92200
C1137       C  0.55780048  0.77845344  0.30557300     0.84300
C1138       C  0.94442679  0.71676683  0.36100079     0.90600
C1139       C  0.78653696  0.70524010  0.14847399     0.80000
N1140       N  0.76756587  0.72602450  0.14855547    -0.78300
C1141       C  0.76223840  0.74034644  0.16597099     0.82400
N1142       N  0.77607642  0.73387242  0.18328127    -0.78300
C1143       C  0.79542977  0.71358078  0.18337025     0.82500
N1144       N  0.80042850  0.69942413  0.16593492    -0.80000
C1145       C  0.70987171  0.79049428  0.18426374     0.80000
N1146       N  0.70474410  0.80485487  0.16700368    -0.78300
C1147       C  0.71788136  0.79867804  0.14940418     0.82400
N1148       N  0.73621257  0.77739378  0.14910328    -0.78300
C1149       C  0.74177464  0.76289193  0.16626895     0.82500
N1150       N  0.72872357  0.76968555  0.18382740    -0.80000
O1151       O  0.69959773  0.74581556  0.68578637    -0.73200
O1152       O  0.74168903  0.70383519  0.64529374    -0.74200
O1153       O  0.74161711  0.70509990  0.68768379    -0.62800
O1154       O  0.70144695  0.74647460  0.64349007    -0.71200
O1155       O  0.75949324  0.80291186  0.64626968    -0.70700
O1156       O  0.80185110  0.75933635  0.68536260    -0.62000
O1157       O  0.79963378  0.76045442  0.64305687    -0.74500
O1158       O  0.75999576  0.79989730  0.68848832    -0.73300
Cu1159     Cu  0.71897964  0.72332256  0.66552675     1.04600
Cu1160     Cu  0.78231997  0.78258369  0.66578061     1.04300
C1161       C  0.72285426  0.77868120  0.69399830     0.93000
C1162       C  0.77657571  0.72514132  0.63741712     0.92200
C1163       C  0.77880497  0.72627625  0.69327220     0.84300
C1164       C  0.72450453  0.78199991  0.63833224     0.90600
C1165       C  0.78680379  0.58312090  0.51858705     0.80000
N1166       N  0.80088230  0.60162404  0.50088598    -0.78300
C1167       C  0.79461560  0.58118634  0.48375531     0.82400
N1168       N  0.77372262  0.54180642  0.48443673    -0.78300
C1169       C  0.75957330  0.52285532  0.50195716     0.82500
N1170       N  0.76629206  0.54358820  0.51902809    -0.80000
C1171       C  0.71169473  0.92093002  0.51929615     0.80000
N1172       N  0.69684340  0.90137748  0.50181254    -0.78300
C1173       C  0.70183472  0.92075905  0.48452041     0.82400
N1174       N  0.72219853  0.96017239  0.48483720    -0.78300
C1175       C  0.73704833  0.98014367  0.50215658     0.82500
N1176       N  0.73168001  0.96043772  0.51936549    -0.80000
C1177       C  0.76433843  0.58802508  0.59069365    -0.18100
C1178       C  0.76377265  0.60830696  0.60749255    -0.20200
C1179       C  0.77899392  0.64831314  0.60649078     0.20400
C1180       C  0.79627005  0.66845829  0.58862663    -0.03200
C1181       C  0.79663259  0.64789950  0.57161370    -0.06200
C1182       C  0.78002101  0.60741156  0.57261291     0.20700
C1183       C  0.81230564  0.66758847  0.55347555     0.18900
C1184       C  0.82864669  0.70786558  0.55267910    -0.17700
C1185       C  0.82833883  0.72828166  0.56956578    -0.19900
C1186       C  0.81164995  0.70878623  0.58754763     0.20300
C1187       C  0.80824908  0.72838255  0.60416905    -0.32900
C1188       C  0.78878962  0.70775963  0.62155619     0.01000
C1189       C  0.77544425  0.66809097  0.62278027    -0.24300
C1190       C  0.77818301  0.58674405  0.55540669    -0.28800
C1191       C  0.79237380  0.60582643  0.53706144     0.07600
C1192       C  0.81023296  0.64648046  0.53634191    -0.27500
H1193       H  0.75166125  0.55699718  0.59173006     0.11400
H1194       H  0.75057250  0.59252302  0.62115980     0.12600
H1195       H  0.84095679  0.72347276  0.53888264     0.11600
H1196       H  0.84033215  0.75918756  0.56843133     0.10900
H1197       H  0.81824012  0.75890969  0.60313994     0.16300
H1198       H  0.76064749  0.65220324  0.63623548     0.12200
H1199       H  0.76468292  0.55557190  0.55625224     0.15000
H1200       H  0.82152568  0.66165701  0.52234971     0.14800
C1201       C  0.74357431  0.92026928  0.59054747    -0.18100
C1202       C  0.74421180  0.90047760  0.60745673    -0.20200
C1203       C  0.72562991  0.85994076  0.60712045     0.20400
C1204       C  0.70508478  0.83891617  0.58983301    -0.03200
C1205       C  0.70462921  0.85894887  0.57271201    -0.06200
C1206       C  0.72440457  0.89983647  0.57302902     0.20700
C1207       C  0.68550155  0.83818958  0.55513213     0.18900
C1208       C  0.66599519  0.79751922  0.55500674    -0.17700
C1209       C  0.66638468  0.77763428  0.57200171    -0.19900
C1210       C  0.68636822  0.79806682  0.58940923     0.20300
C1211       C  0.68974473  0.77869890  0.60603654    -0.32900
C1212       C  0.71242069  0.79995036  0.62277912     0.01000
C1213       C  0.72897513  0.84031696  0.62345214    -0.24300
C1214       C  0.72559266  0.91971682  0.55571071    -0.28800
C1215       C  0.70760184  0.89940319  0.53792184     0.06700
C1216       C  0.68705623  0.85850954  0.53787200    -0.27500
H1217       H  0.75876263  0.95163631  0.59105569     0.11400
H1218       H  0.76001048  0.91696644  0.62067098     0.12600
H1219       H  0.65101874  0.78111540  0.54164693     0.11600
H1220       H  0.65181628  0.74632026  0.57138200     0.10900
H1221       H  0.67715861  0.74761562  0.60542705     0.16300
H1222       H  0.74617518  0.85676471  0.63642967     0.12200
H1223       H  0.74140412  0.95113526  0.55602179     0.15000
H1224       H  0.67288671  0.84242273  0.52431653     0.14800
C1225       C  0.86781675  0.70194628  0.44405162    -0.18100
C1226       C  0.88791499  0.72110212  0.42654669    -0.20200
C1227       C  0.88891007  0.70003369  0.41007064     0.20400
C1228       C  0.86831733  0.65910995  0.41108238    -0.03200
C1229       C  0.84806642  0.63981375  0.42871802    -0.06200
C1230       C  0.84834702  0.66137656  0.44538934     0.20700
C1231       C  0.82861027  0.59902958  0.42983867     0.18900
C1232       C  0.82865665  0.57779818  0.41324104    -0.17700
C1233       C  0.84880340  0.59688754  0.39581841    -0.19900
C1234       C  0.86917743  0.63749198  0.39472637     0.20300
C1235       C  0.89190185  0.65687104  0.37787552    -0.32900
C1236       C  0.91433806  0.69766559  0.37712179     0.01000
C1237       C  0.91158621  0.71912684  0.39296749    -0.24300
C1238       C  0.83004806  0.64207675  0.46322675    -0.28800
C1239       C  0.81147891  0.60145624  0.46459793     0.06700
C1240       C  0.81031619  0.58017987  0.44767353    -0.27500
H1241       H  0.86814100  0.71894088  0.45667620     0.11400
H1242       H  0.90341980  0.75248434  0.42604868     0.12600
H1243       H  0.81374410  0.54646506  0.41385712     0.11600
H1244       H  0.84916791  0.57993466  0.38333358     0.10900
H1245       H  0.89355541  0.64012576  0.36561556     0.16300
H1246       H  0.92897126  0.75056971  0.39250103     0.12200
H1247       H  0.83089518  0.65878750  0.47610718     0.15000
H1248       H  0.79609198  0.54891716  0.44846692     0.14800
C1249       C  0.81437734  0.72909077  0.25634340    -0.18100
C1250       C  0.83434243  0.72859876  0.27364840    -0.20200
C1251       C  0.86174517  0.71538493  0.27304088     0.20400
C1252       C  0.86803135  0.70115459  0.25503098    -0.03200
C1253       C  0.84797741  0.70180629  0.23752914    -0.06200
C1254       C  0.82157111  0.71645227  0.23815438     0.20700
C1255       C  0.85547271  0.68911930  0.21931056     0.18900
C1256       C  0.88194428  0.67478099  0.21886388    -0.17700
C1257       C  0.90188062  0.67418547  0.23621571    -0.19900
C1258       C  0.89569681  0.68790640  0.25432254     0.20300
C1259       C  0.91826295  0.69064965  0.27144310    -0.32900
C1260       C  0.91399157  0.70728079  0.28900968     0.01000
C1261       C  0.88459140  0.71815901  0.28987917    -0.24300
C1262       C  0.80372761  0.71928308  0.22051603    -0.28800
C1263       C  0.81198758  0.70782424  0.20216259     0.06700
C1264       C  0.83730565  0.69202950  0.20177810    -0.27500
H1265       H  0.79402345  0.74019780  0.25710173     0.11400
H1266       H  0.82912318  0.73947677  0.28741563     0.12600
H1267       H  0.88789595  0.66477142  0.20500051     0.11600
H1268       H  0.92290605  0.66385747  0.23536460     0.10900
H1269       H  0.94118730  0.68261850  0.27066714     0.16300
H1270       H  0.88110688  0.73084584  0.30345261     0.12200
H1271       H  0.78403014  0.73115021  0.22107059     0.15000
H1272       H  0.84384463  0.68294715  0.18776490     0.14800
C1273       C  0.67320298  0.77808226  0.27475936    -0.18100
C1274       C  0.69386476  0.77852239  0.25751744    -0.20200
C1275       C  0.68504772  0.78921328  0.23918908     0.20400
C1276       C  0.65636573  0.80118485  0.23839230    -0.03200
C1277       C  0.63559924  0.80088415  0.25581642    -0.06200
C1278       C  0.64345905  0.78840763  0.27395606     0.20700
C1279       C  0.60561857  0.81126072  0.25488594     0.18900
C1280       C  0.59774839  0.82310146  0.23666205    -0.17700
C1281       C  0.61839904  0.82348101  0.21940254    -0.19900
C1282       C  0.64723719  0.81196535  0.22006365     0.20300
C1283       C  0.66602639  0.80975675  0.20260764    -0.32900
C1284       C  0.69338785  0.79626288  0.20311667     0.01000
C1285       C  0.70336904  0.78685363  0.22157101    -0.24300
C1286       C  0.61986590  0.78437084  0.29070069    -0.28800
C1287       C  0.58844566  0.79253289  0.28959017     0.06700
C1288       C  0.58252405  0.80750033  0.27190963    -0.27500
H1289       H  0.67970546  0.76864198  0.28862593     0.11400
H1290       H  0.71598973  0.76953373  0.25842814     0.12600
H1291       H  0.57488313  0.83115708  0.23565021     0.11600
H1292       H  0.61112782  0.83193801  0.20543708     0.10900
H1293       H  0.65812479  0.81725059  0.18851834     0.16300
H1294       H  0.72470137  0.77686395  0.22219759     0.12200
H1295       H  0.62445919  0.77285694  0.30437490     0.15000
H1296       H  0.55796909  0.81332893  0.27097406     0.14800
C1297       C  0.62834863  0.79755091  0.44603012    -0.18100
C1298       C  0.60940689  0.77749192  0.42841056    -0.20200
C1299       C  0.61022601  0.79775427  0.41127057     0.20400
C1300       C  0.63147892  0.83876917  0.41179053    -0.03200
C1301       C  0.65040480  0.85896475  0.42956596    -0.06200
C1302       C  0.64838932  0.83824007  0.44684465     0.20700
C1303       C  0.67032503  0.89984519  0.43016908     0.18900
C1304       C  0.67207148  0.92025634  0.41294912    -0.17700
C1305       C  0.65335859  0.90029944  0.39537323    -0.19900
C1306       C  0.63253429  0.85962568  0.39476257     0.20300
C1307       C  0.61098644  0.83948186  0.37771276    -0.32900
C1308       C  0.58749259  0.79868849  0.37745193     0.01000
C1309       C  0.58850781  0.77785095  0.39397585    -0.24300
C1310       C  0.66572680  0.85851715  0.46470049    -0.28800
C1311       C  0.68498996  0.89929759  0.46550791     0.06700
C1312       C  0.68749583  0.91965627  0.44805239    -0.27500
H1313       H  0.62668174  0.78117684  0.45913337     0.11400
H1314       H  0.59337685  0.74606388  0.42831884     0.12600
H1315       H  0.68735300  0.95164167  0.41316031     0.11600
H1316       H  0.65438748  0.91665409  0.38237402     0.10900
H1317       H  0.61064049  0.85569487  0.36492459     0.16300
H1318       H  0.57026254  0.74641512  0.39388381     0.12200
H1319       H  0.66373322  0.84245455  0.47799745     0.15000
H1320       H  0.70225379  0.95100634  0.44839125     0.14800
C1321       C  0.90033555  0.74650371  0.72797560    -0.18100
C1322       C  0.91947745  0.74523191  0.74538055    -0.20200
C1323       C  0.89634299  0.72513118  0.76209124     0.20400
C1324       C  0.85346813  0.70539031  0.76117123    -0.03200
C1325       C  0.83407899  0.70658210  0.74353498    -0.06200
C1326       C  0.85777182  0.72768536  0.72701343     0.20700
C1327       C  0.79118595  0.68781754  0.74265201     0.18900
C1328       C  0.76814274  0.66717075  0.75932289    -0.17700
C1329       C  0.78740408  0.66596474  0.77683320    -0.19900
C1330       C  0.83008330  0.68538388  0.77800283     0.20300
C1331       C  0.84985053  0.68590135  0.79578235    -0.32900
C1332       C  0.89273318  0.70626084  0.79689370     0.01000
C1333       C  0.91555022  0.72525021  0.77981287    -0.24300
C1334       C  0.83871287  0.73114043  0.71009744    -0.28800
C1335       C  0.79624203  0.71440407  0.70942287     0.06700
C1336       C  0.77239811  0.69157314  0.72546526    -0.27500
H1337       H  0.91887864  0.76283317  0.71538029     0.11400
H1338       H  0.95242642  0.76048697  0.74587225     0.12600
H1339       H  0.73521484  0.65254134  0.75895464     0.11600
H1340       H  0.76892172  0.65033641  0.78956906     0.10900
H1341       H  0.83187293  0.67105511  0.80879160     0.16300
H1342       H  0.94851879  0.74098772  0.78034274     0.12200
H1343       H  0.85724715  0.74850257  0.69771300     0.15000
H1344       H  0.73966379  0.67883506  0.72508069     0.14800
C1345       C  0.73189442  0.82939886  0.76214759    -0.18100
C1346       C  0.71192872  0.82933760  0.77963937    -0.20200
C1347       C  0.66948846  0.81275716  0.77982143     0.20400
C1348       C  0.64717426  0.79727927  0.76202637    -0.03200
C1349       C  0.66727177  0.79729572  0.74441054    -0.06200
C1350       C  0.70978598  0.81285236  0.74452785     0.20700
C1351       C  0.64450566  0.78022243  0.72690595     0.18900
C1352       C  0.60232180  0.76479537  0.72685904    -0.17700
C1353       C  0.58249249  0.76498359  0.74424973    -0.19900
C1354       C  0.60453356  0.78048389  0.76196461     0.20300
C1355       C  0.58438283  0.77827812  0.77972370    -0.32900
C1356       C  0.60603784  0.79220927  0.79774440     0.01000
C1357       C  0.64880628  0.81025255  0.79757254    -0.24300
C1358       C  0.72894707  0.80976166  0.72733342    -0.28800
C1359       C  0.70577059  0.79051602  0.71031504     0.06700
C1360       C  0.66391241  0.77707486  0.71001954    -0.27500
H1361       H  0.76452712  0.84155862  0.76253268     0.11400
H1362       H  0.72958837  0.84153358  0.79313254     0.12600
H1363       H  0.58450614  0.75173352  0.71348570     0.11600
H1364       H  0.54976364  0.75216322  0.74395674     0.10900
H1365       H  0.55154679  0.76468897  0.77953415     0.16300
H1366       H  0.66591290  0.82132187  0.81130946     0.12200
H1367       H  0.76118223  0.81987266  0.72764697     0.15000
H1368       H  0.64602504  0.76245557  0.69685539     0.14800
C1369       C  0.68117508  0.90553013  0.09864649    -0.18100
C1370       C  0.68119337  0.88547393  0.11562502    -0.20200
C1371       C  0.69577367  0.85990125  0.11467752     0.20400
C1372       C  0.70973323  0.85387287  0.09638750    -0.03200
C1373       C  0.70977665  0.87413042  0.07927857    -0.06200
C1374       C  0.69576060  0.90037188  0.08044414     0.20700
C1375       C  0.72514618  0.86909356  0.06117896     0.18900
C1376       C  0.73905034  0.84304481  0.06012644    -0.17700
C1377       C  0.73875114  0.82279762  0.07704263    -0.19900
C1378       C  0.72469765  0.82841198  0.09528814     0.20300
C1379       C  0.72630117  0.80971072  0.11252540    -0.32900
C1380       C  0.71339488  0.81626312  0.13094103     0.01000
C1381       C  0.69753509  0.84097175  0.13179358    -0.24300
C1382       C  0.69821488  0.92213058  0.06361350    -0.28800
C1383       C  0.71546198  0.91854584  0.04590650     0.06700
C1384       C  0.72793150  0.89137128  0.04465653    -0.27500
H1385       H  0.67040507  0.92558771  0.09983848     0.11400
H1386       H  0.67034058  0.89038986  0.12957047     0.12600
H1387       H  0.75083510  0.83883768  0.04629276     0.11600
H1388       H  0.75020148  0.80327508  0.07593568     0.10900
H1389       H  0.73837070  0.79065635  0.11162939     0.16300
H1390       H  0.68735137  0.84624328  0.14585937     0.12200
H1391       H  0.68916830  0.94351786  0.06464744     0.15000
H1392       H  0.74125962  0.88865163  0.03096185     0.14800
C1393       C  0.76109095  0.65605114  0.05934892    -0.18100
C1394       C  0.76099860  0.67638337  0.07625951    -0.20200
C1395       C  0.77744714  0.67311457  0.09429196     0.20400
C1396       C  0.79514849  0.64988500  0.09512464    -0.03200
C1397       C  0.79535950  0.62941314  0.07801597    -0.06200
C1398       C  0.77766413  0.63212861  0.06017206     0.20700
C1399       C  0.81191466  0.60518314  0.07895916     0.18900
C1400       C  0.82899430  0.60248264  0.09692432    -0.17700
C1401       C  0.82885692  0.62283556  0.11386825    -0.19900
C1402       C  0.81158551  0.64622689  0.11317045     0.20300
C1403       C  0.80960064  0.66524549  0.13031653    -0.32900
C1404       C  0.79103564  0.68771226  0.12980044     0.01000
C1405       C  0.77559853  0.69192189  0.11158330    -0.24300
C1406       C  0.77510128  0.60951711  0.04371751    -0.28800
C1407       C  0.78965639  0.58389109  0.04478638     0.06700
C1408       C  0.80934436  0.58279368  0.06221490    -0.27500
H1409       H  0.74744523  0.65843860  0.04571262     0.11400
H1410       H  0.74741046  0.69414713  0.07531806     0.12600
H1411       H  0.84179944  0.58405947  0.09797951     0.11600
H1412       H  0.84167787  0.61976936  0.12762275     0.10900
H1413       H  0.82182314  0.66177975  0.14417867     0.16300
H1414       H  0.76137659  0.70916616  0.11090632     0.12200
H1415       H  0.75997998  0.61048679  0.03027330     0.15000
H1416       H  0.82013401  0.56271978  0.06318228     0.14800
C1417       C  0.59983364  0.83906085  0.94091801    -0.18100
C1418       C  0.58013023  0.81863405  0.92356721    -0.20200
C1419       C  0.60237088  0.82387916  0.90607119     0.20400
C1420       C  0.64502388  0.84911956  0.90619457    -0.03200
C1421       C  0.66497939  0.86956447  0.92376338    -0.06200
C1422       C  0.64210963  0.86495185  0.94106921     0.20700
C1423       C  0.70755313  0.89564602  0.92379878     0.18900
C1424       C  0.72979539  0.90033153  0.90636734    -0.17700
C1425       C  0.70999195  0.88013199  0.88893749    -0.19900
C1426       C  0.66758465  0.85480707  0.88863350     0.20300
C1427       C  0.64726316  0.83584442  0.87097042    -0.32900
C1428       C  0.60457012  0.81135265  0.87058811     0.01000
C1429       C  0.58251720  0.80506851  0.88835254    -0.24300
C1430       C  0.66160503  0.88760251  0.95794089    -0.28800
C1431       C  0.70367413  0.91496020  0.95780492     0.06700
C1432       C  0.72676604  0.91786841  0.94095110    -0.27500
H1433       H  0.58188658  0.83516496  0.95411781     0.11400
H1434       H  0.54738282  0.79928108  0.92373226     0.12600
H1435       H  0.76245246  0.92023377  0.90609440     0.11600
H1436       H  0.72779229  0.88478680  0.87559777     0.10900
H1437       H  0.66467928  0.84088827  0.85744422     0.16300
H1438       H  0.54968853  0.78621163  0.88835551     0.12200
H1439       H  0.64369928  0.88516987  0.97094986     0.15000
H1440       H  0.75910144  0.93921455  0.94071442     0.14800
C1441       C  0.76658923  0.59113084  0.90473561    -0.18100
C1442       C  0.78618349  0.61091444  0.88725802    -0.20200
C1443       C  0.82841467  0.63725368  0.88710158     0.20400
C1444       C  0.85089285  0.64449747  0.90488607    -0.03200
C1445       C  0.83117322  0.62455111  0.92248659    -0.06200
C1446       C  0.78886805  0.59729109  0.92236832     0.20700
C1447       C  0.85412953  0.63082035  0.93999823     0.18900
C1448       C  0.89610999  0.65785487  0.94004472    -0.17700
C1449       C  0.91555904  0.67773609  0.92266899    -0.19900
C1450       C  0.89333418  0.67078629  0.90497373     0.20300
C1451       C  0.91311619  0.68897314  0.88727883    -0.32900
C1452       C  0.89130199  0.68116449  0.86929516     0.01000
C1453       C  0.84873615  0.65571557  0.86940850    -0.24300
C1454       C  0.77011932  0.57543963  0.93959501    -0.28800
C1455       C  0.79352453  0.58008968  0.95664648     0.06700
C1456       C  0.83514466  0.60865360  0.95691219    -0.27500
H1457       H  0.73411860  0.57037641  0.90434436     0.11400
H1458       H  0.76840379  0.60509352  0.87376957     0.12600
H1459       H  0.91406552  0.66301862  0.95341794     0.11600
H1460       H  0.94814487  0.69797063  0.92297208     0.10900
H1461       H  0.94580791  0.70871527  0.88751440     0.16300
H1462       H  0.83153511  0.64953584  0.85568849     0.12200
H1463       H  0.73808947  0.55313708  0.93929989     0.15000
H1464       H  0.85320194  0.61239999  0.97009274     0.14800
loop_ 
_geom_bond_atom_site_label_1 
_geom_bond_atom_site_label_2 
_geom_bond_distance 
_geom_bond_site_symmetry_2 
_ccdc_geom_bond_type 
O1           C11   1.274       .  A
O1         Cu375   1.978   1_545  S
O2           C12   1.274       .  A
O2           Cu9   1.978   1_556  S
O3           C13   1.281       .  A
O3           Cu9   2.035       .  S
O4           C14   1.281       .  A
O4         Cu375   2.038   1_546  S
O5           C14   1.274       .  A
O5          Cu10   1.977   1_556  S
O6           C13   1.273       .  A
O6         Cu376   1.975       .  S
O7           C12   1.283       .  A
O7         Cu376   2.043   1_556  S
O8           C11   1.282       .  A
O8          Cu10   2.046       .  S
Cu9         O367   1.978       .  S
Cu9         O370   2.038   1_554  S
Cu9        Cu376   2.366       .  S
Cu10        O372   1.975   1_545  S
Cu10        O373   2.043   1_544  S
Cu10       Cu375   2.366   1_545  S
C11         C309   1.478       .  S
C12         C333   1.477       .  S
C13         C285   1.471       .  S
C14         C357   1.474       .  S
C15         C258   1.486       .  S
C15          N16   1.360       .  A
C15          N20   1.361       .  A
N16          C17   1.356       .  A
C17         C757   1.470   1_455  S
C17          N18   1.357       .  A
N18          C19   1.361       .  A
C19         C330   1.486       .  S
C19          N20   1.362       .  A
C21         C234   1.487       .  S
C21          N22   1.362       .  A
C21          N26   1.360       .  A
N22          C23   1.363       .  A
C23         C354   1.485       .  S
C23          N24   1.360       .  A
N24          C25   1.354       .  A
C25         C749   1.470       .  S
C25          N26   1.355       .  A
O27          C37   1.273       .  A
O27        Cu767   1.971       .  S
O28          C38   1.273       .  A
O28         Cu35   1.970   1_455  S
O29          C39   1.282       .  A
O29         Cu35   2.041   1_455  S
O30          C40   1.282       .  A
O30        Cu767   2.040       .  S
O31          C40   1.274       .  A
O31         Cu36   1.976       .  S
O32          C39   1.273       .  A
O32        Cu768   1.976       .  S
O33          C38   1.282       .  A
O33        Cu768   2.047       .  S
O34          C37   1.283       .  A
O34         Cu36   2.049       .  S
Cu35        O759   1.971       .  S
Cu35        O762   2.040       .  S
Cu35       Cu768   2.366   1_655  S
Cu36        O764   1.976       .  S
Cu36        O765   2.047       .  S
Cu36       Cu767   2.366       .  S
C37         C162   1.477       .  S
C38         C210   1.478       .  S
C39         C189   1.474       .  S
C40         C138   1.478       .  S
C41         C306   1.490       .  S
C41          N42   1.364       .  A
C41          N46   1.358       .  A
N42          C43   1.363       .  A
C43          C51   1.476       .  S
C43          N44   1.359       .  A
N44          C45   1.359       .  A
C45         C165   1.484       .  S
C45          N46   1.356       .  A
C47         C186   1.485       .  S
C47          N48   1.356       .  A
C47          N52   1.361       .  A
N48          C49   1.356       .  A
C49         C282   1.483       .  S
C49          N50   1.361       .  A
N50          C51   1.360       .  A
C51          N52   1.362       .  A
O53          C63   1.274       .  A
O53         Cu61   1.978       .  S
O54          C64   1.274       .  A
O54         Cu61   1.980       .  S
O55          C65   1.282       .  A
O55         Cu61   2.043       .  S
O56          C66   1.282       .  A
O56         Cu61   2.042       .  S
O57          C66   1.274       .  A
O57         Cu62   1.975       .  S
O58          C65   1.274       .  A
O58         Cu62   1.975       .  S
O59          C64   1.281       .  A
O59         Cu62   2.041       .  S
O60          C63   1.281       .  A
O60         Cu62   2.038       .  S
Cu61        Cu62   2.367       .  S
C63         C261   1.475       .  S
C64          C90   1.476       .  S
C65         C237   1.479       .  S
C66         C114   1.476       .  S
C67          C93   1.486       .  S
C67          N68   1.360       .  A
C67          N72   1.363       .  A
N68          C69   1.358       .  A
C69         C141   1.484       .  S
C69          N70   1.358       .  A
N70          C71   1.356       .  A
C71         C443   1.472   1_545  S
C71          N72   1.359       .  A
C73         C117   1.486       .  S
C73          N74   1.360       .  A
C73          N78   1.362       .  A
N74          C75   1.359       .  A
C75         C213   1.486       .  S
C75          N76   1.359       .  A
N76          C77   1.357       .  A
C77         C437   1.472       .  S
C77          N78   1.358       .  A
C79          C80   1.397       .  A
C79          C84   1.402       .  A
C79          H95   1.084       .  S
C80          C81   1.403       .  A
C80          H96   1.084       .  S
C81          C91   1.398       .  A
C81          C82   1.410       .  A
C82          C88   1.414       .  A
C82          C83   1.412       .  A
C83          C85   1.410       .  A
C83          C84   1.412       .  A
C84          C92   1.401       .  A
C85          C94   1.405       .  A
C85          C86   1.405       .  A
C86          C87   1.401       .  A
C86          H97   1.083       .  S
C87          C88   1.404       .  A
C87          H98   1.084       .  S
C88          C89   1.409       .  A
C89          C90   1.406       .  A
C89          H99   1.084       .  S
C90          C91   1.405       .  A
C91         H100   1.085       .  S
C92          C93   1.407       .  A
C92         H101   1.084       .  S
C93          C94   1.411       .  A
C94         H102   1.084       .  S
C103        C104   1.397       .  A
C103        C108   1.403       .  A
C103        H119   1.083       .  S
C104        C105   1.403       .  A
C104        H120   1.084       .  S
C105        C115   1.398       .  A
C105        C106   1.409       .  A
C106        C112   1.414       .  A
C106        C107   1.412       .  A
C107        C109   1.410       .  A
C107        C108   1.412       .  A
C108        C116   1.401       .  A
C109        C118   1.404       .  A
C109        C110   1.405       .  A
C110        C111   1.401       .  A
C110        H121   1.083       .  S
C111        C112   1.404       .  A
C111        H122   1.084       .  S
C112        C113   1.408       .  A
C113        C114   1.405       .  A
C113        H123   1.084       .  S
C114        C115   1.407       .  A
C115        H124   1.085       .  S
C116        C117   1.407       .  A
C116        H125   1.084       .  S
C117        C118   1.410       .  A
C118        H126   1.084       .  S
C127        C128   1.401       .  A
C127        C132   1.405       .  A
C127        H143   1.083       .  S
C128        C129   1.404       .  A
C128        H144   1.084       .  S
C129        C139   1.408       .  A
C129        C130   1.413       .  A
C130        C136   1.410       .  A
C130        C131   1.412       .  A
C131        C133   1.411       .  A
C131        C132   1.410       .  A
C132        C140   1.405       .  A
C133        C142   1.400       .  A
C133        C134   1.402       .  A
C134        C135   1.396       .  A
C134        H145   1.084       .  S
C135        C136   1.403       .  A
C135        H146   1.084       .  S
C136        C137   1.397       .  A
C137        C138   1.407       .  A
C137        H147   1.084       .  S
C138        C139   1.406       .  A
C139        H148   1.084       .  S
C140        C141   1.409       .  A
C140        H149   1.084       .  S
C141        C142   1.407       .  A
C142        H150   1.084       .  S
C151        C152   1.397       .  A
C151        C156   1.403       .  A
C151        H167   1.084       .  S
C152        C153   1.403       .  A
C152        H168   1.084       .  S
C153        C163   1.399       .  A
C153        C154   1.409       .  A
C154        C160   1.414       .  A
C154        C155   1.412       .  A
C155        C157   1.410       .  A
C155        C156   1.412       .  A
C156        C164   1.402       .  A
C157        C166   1.404       .  A
C157        C158   1.405       .  A
C158        C159   1.401       .  A
C158        H169   1.083       .  S
C159        C160   1.404       .  A
C159        H170   1.084       .  S
C160        C161   1.408       .  A
C161        C162   1.405       .  A
C161        H171   1.084       .  S
C162        C163   1.407       .  A
C163        H172   1.085       .  S
C164        C165   1.407       .  A
C164        H173   1.084       .  S
C165        C166   1.410       .  A
C166        H174   1.084       .  S
C175        C176   1.398       .  A
C175        C180   1.404       .  A
C175        H191   1.084       .  S
C176        C177   1.403       .  A
C176        H192   1.083       .  S
C177        C187   1.404       .  A
C177        C178   1.413       .  A
C178        C184   1.409       .  A
C178        C179   1.412       .  A
C179        C181   1.414       .  A
C179        C180   1.410       .  A
C180        C188   1.400       .  A
C181        C190   1.406       .  A
C181        C182   1.403       .  A
C182        C183   1.400       .  A
C182        H193   1.084       .  S
C183        C184   1.405       .  A
C183        H194   1.083       .  S
C184        C185   1.403       .  A
C185        C186   1.411       .  A
C185        H195   1.084       .  S
C186        C187   1.407       .  A
C187        H196   1.084       .  S
C188        C189   1.406       .  A
C188        H197   1.085       .  S
C189        C190   1.404       .  A
C190        H198   1.084       .  S
C199        C200   1.402       .  A
C199        C204   1.405       .  A
C199        H215   1.083       .  S
C200        C201   1.404       .  A
C200        H216   1.084       .  S
C201        C211   1.409       .  A
C201        C202   1.414       .  A
C202        C208   1.409       .  A
C202        C203   1.412       .  A
C203        C205   1.412       .  A
C203        C204   1.410       .  A
C204        C212   1.406       .  A
C205        C214   1.400       .  A
C205        C206   1.402       .  A
C206        C207   1.396       .  A
C206        H217   1.084       .  S
C207        C208   1.403       .  A
C207        H218   1.084       .  S
C208        C209   1.397       .  A
C209        C210   1.407       .  A
C209        H219   1.085       .  S
C210        C211   1.406       .  A
C211        H220   1.084       .  S
C212        C213   1.410       .  A
C212        H221   1.084       .  S
C213        C214   1.407       .  A
C214        H222   1.084       .  S
C223        C224   1.395       .  A
C223        C228   1.402       .  A
C223        H239   1.084       .  S
C224        C225   1.402       .  A
C224        H240   1.083       .  S
C225        C235   1.398       .  A
C225        C226   1.411       .  A
C226        C232   1.411       .  A
C226        C227   1.412       .  A
C227        C229   1.413       .  A
C227        C228   1.410       .  A
C228        C236   1.396       .  A
C229        C238   1.410       .  A
C229        C230   1.405       .  A
C230        C231   1.403       .  A
C230        H241   1.084       .  S
C231        C232   1.405       .  A
C231        H242   1.083       .  S
C232        C233   1.408       .  A
C233        C234   1.411       .  A
C233        H243   1.083       .  S
C234        C235   1.408       .  A
C235        H244   1.084       .  S
C236        C237   1.406       .  A
C236        H245   1.085       .  S
C237        C238   1.407       .  A
C238        H246   1.084       .  S
C247        C248   1.402       .  A
C247        C252   1.404       .  A
C247        H263   1.084       .  S
C248        C249   1.405       .  A
C248        H264   1.083       .  S
C249        C259   1.407       .  A
C249        C250   1.411       .  A
C250        C256   1.411       .  A
C250        C251   1.412       .  A
C251        C253   1.410       .  A
C251        C252   1.413       .  A
C252        C260   1.408       .  A
C253        C262   1.398       .  A
C253        C254   1.402       .  A
C254        C255   1.396       .  A
C254        H265   1.084       .  S
C255        C256   1.402       .  A
C255        H266   1.083       .  S
C256        C257   1.399       .  A
C257        C258   1.407       .  A
C257        H267   1.084       .  S
C258        C259   1.410       .  A
C259        H268   1.083       .  S
C260        C261   1.406       .  A
C260        H269   1.084       .  S
C261        C262   1.405       .  A
C262        H270   1.085       .  S
C271        C272   1.400       .  A
C271        C276   1.403       .  A
C271        H287   1.084       .  S
C272        C273   1.405       .  A
C272        H288   1.083       .  S
C273        C283   1.402       .  A
C273        C274   1.409       .  A
C274        C280   1.412       .  A
C274        C275   1.411       .  A
C275        C277   1.410       .  A
C275        C276   1.414       .  A
C276        C284   1.405       .  A
C277        C286   1.398       .  A
C277        C278   1.403       .  A
C278        C279   1.397       .  A
C278        H289   1.084       .  S
C279        C280   1.402       .  A
C279        H290   1.083       .  S
C280        C281   1.402       .  A
C281        C282   1.406       .  A
C281        H291   1.084       .  S
C282        C283   1.411       .  A
C283        H292   1.084       .  S
C284        C285   1.404       .  A
C284        H293   1.084       .  S
C285        C286   1.405       .  A
C286        H294   1.085       .  S
C295        C296   1.398       .  A
C295        C300   1.403       .  A
C295        H311   1.084       .  S
C296        C297   1.403       .  A
C296        H312   1.083       .  S
C297        C307   1.405       .  A
C297        C298   1.413       .  A
C298        C304   1.409       .  A
C298        C299   1.414       .  A
C299        C301   1.415       .  A
C299        C300   1.409       .  A
C300        C308   1.399       .  A
C301        C310   1.409       .  A
C301        C302   1.404       .  A
C302        C303   1.401       .  A
C302        H313   1.084       .  S
C303        C304   1.405       .  A
C303        H314   1.083       .  S
C304        C305   1.404       .  A
C305        C306   1.412       .  A
C305        H315   1.084       .  S
C306        C307   1.407       .  A
C307        H316   1.084       .  S
C308        C309   1.407       .  A
C308        H317   1.085       .  S
C309        C310   1.406       .  A
C310        H318   1.084       .  S
C319        C320   1.398       .  A
C319        C324   1.403       .  A
C319        H335   1.084       .  S
C320        C321   1.403       .  A
C320        H336   1.083       .  S
C321        C331   1.402       .  A
C321        C322   1.411       .  A
C322        C328   1.411       .  A
C322        C323   1.412       .  A
C323        C325   1.413       .  A
C323        C324   1.410       .  A
C324        C332   1.400       .  A
C325        C334   1.407       .  A
C325        C326   1.403       .  A
C326        C327   1.400       .  A
C326        H337   1.084       .  S
C327        C328   1.404       .  A
C327        H338   1.083       .  S
C328        C329   1.405       .  A
C329        C330   1.409       .  A
C329        H339   1.084       .  S
C330        C331   1.409       .  A
C331        H340   1.084       .  S
C332        C333   1.407       .  A
C332        H341   1.084       .  S
C333        C334   1.405       .  A
C334        H342   1.084       .  S
C343        C344   1.402       .  A
C343        C348   1.404       .  A
C343        H359   1.084       .  S
C344        C345   1.405       .  A
C344        H360   1.083       .  S
C345        C355   1.407       .  A
C345        C346   1.411       .  A
C346        C352   1.411       .  A
C346        C347   1.412       .  A
C347        C349   1.410       .  A
C347        C348   1.413       .  A
C348        C356   1.408       .  A
C349        C358   1.397       .  A
C349        C350   1.402       .  A
C350        C351   1.396       .  A
C350        H361   1.084       .  S
C351        C352   1.402       .  A
C351        H362   1.084       .  S
C352        C353   1.399       .  A
C353        C354   1.408       .  A
C353        H363   1.084       .  S
C354        C355   1.410       .  A
C355        H364   1.084       .  S
C356        C357   1.406       .  A
C356        H365   1.084       .  S
C357        C358   1.405       .  A
C358        H366   1.085       .  S
O367        C377   1.274       .  A
O368        C378   1.274       .  A
O368       Cu375   1.978   1_556  S
O369        C379   1.281       .  A
O369       Cu375   2.035       .  S
O370        C380   1.281       .  A
O371        C380   1.274       .  A
O371       Cu376   1.977   1_556  S
O372        C379   1.273       .  A
O373        C378   1.283       .  A
O374        C377   1.282       .  A
O374       Cu376   2.046       .  S
C377        C675   1.478       .  S
C378        C699   1.477       .  S
C379        C651   1.471       .  S
C380        C723   1.474       .  S
C381        C624   1.486       .  S
C381        N382   1.360       .  A
C381        N386   1.361       .  A
N382        C383   1.356       .  A
C383       C1123   1.470   1_455  S
C383        N384   1.357       .  A
N384        C385   1.361       .  A
C385        C696   1.486       .  S
C385        N386   1.362       .  A
C387        C600   1.487       .  S
C387        N388   1.362       .  A
C387        N392   1.360       .  A
N388        C389   1.363       .  A
C389        C720   1.485       .  S
C389        N390   1.360       .  A
N390        C391   1.354       .  A
C391       C1115   1.470       .  S
C391        N392   1.355       .  A
O393        C403   1.273       .  A
O393      Cu1133   1.971       .  S
O394        C404   1.273       .  A
O394       Cu401   1.970   1_455  S
O395        C405   1.282       .  A
O395       Cu401   2.041   1_455  S
O396        C406   1.282       .  A
O396      Cu1133   2.040       .  S
O397        C406   1.274       .  A
O397       Cu402   1.976       .  S
O398        C405   1.273       .  A
O398      Cu1134   1.976       .  S
O399        C404   1.282       .  A
O399      Cu1134   2.047       .  S
O400        C403   1.283       .  A
O400       Cu402   2.049       .  S
Cu401      O1125   1.971       .  S
Cu401      O1128   2.040       .  S
Cu401     Cu1134   2.366   1_655  S
Cu402      O1130   1.976       .  S
Cu402      O1131   2.047       .  S
Cu402     Cu1133   2.366       .  S
C403        C528   1.477       .  S
C404        C576   1.478       .  S
C405        C555   1.474       .  S
C406        C504   1.478       .  S
C407        C672   1.490       .  S
C407        N408   1.364       .  A
C407        N412   1.358       .  A
N408        C409   1.363       .  A
C409        C417   1.476       .  S
C409        N410   1.359       .  A
N410        C411   1.359       .  A
C411        C531   1.484       .  S
C411        N412   1.356       .  A
C413        C552   1.485       .  S
C413        N414   1.356       .  A
C413        N418   1.361       .  A
N414        C415   1.356       .  A
C415        C648   1.483       .  S
C415        N416   1.361       .  A
N416        C417   1.360       .  A
C417        N418   1.362       .  A
O419        C429   1.274       .  A
O419       Cu427   1.978       .  S
O420        C430   1.274       .  A
O420       Cu427   1.980       .  S
O421        C431   1.282       .  A
O421       Cu427   2.043       .  S
O422        C432   1.282       .  A
O422       Cu427   2.042       .  S
O423        C432   1.274       .  A
O423       Cu428   1.975       .  S
O424        C431   1.274       .  A
O424       Cu428   1.975       .  S
O425        C430   1.281       .  A
O425       Cu428   2.041       .  S
O426        C429   1.281       .  A
O426       Cu428   2.038       .  S
Cu427      Cu428   2.367       .  S
C429        C627   1.475       .  S
C430        C456   1.476       .  S
C431        C603   1.479       .  S
C432        C480   1.476       .  S
C433        C459   1.486       .  S
C433        N434   1.360       .  A
C433        N438   1.363       .  A
N434        C435   1.358       .  A
C435        C507   1.484       .  S
C435        N436   1.358       .  A
N436        C437   1.356       .  A
C437        N438   1.359       .  A
C439        C483   1.486       .  S
C439        N440   1.360       .  A
C439        N444   1.362       .  A
N440        C441   1.359       .  A
C441        C579   1.486       .  S
C441        N442   1.359       .  A
N442        C443   1.357       .  A
C443        N444   1.358       .  A
C445        C446   1.397       .  A
C445        C450   1.402       .  A
C445        H461   1.084       .  S
C446        C447   1.403       .  A
C446        H462   1.084       .  S
C447        C457   1.398       .  A
C447        C448   1.410       .  A
C448        C454   1.414       .  A
C448        C449   1.412       .  A
C449        C451   1.410       .  A
C449        C450   1.412       .  A
C450        C458   1.401       .  A
C451        C460   1.405       .  A
C451        C452   1.405       .  A
C452        C453   1.401       .  A
C452        H463   1.083       .  S
C453        C454   1.404       .  A
C453        H464   1.084       .  S
C454        C455   1.409       .  A
C455        C456   1.406       .  A
C455        H465   1.084       .  S
C456        C457   1.405       .  A
C457        H466   1.085       .  S
C458        C459   1.407       .  A
C458        H467   1.084       .  S
C459        C460   1.411       .  A
C460        H468   1.084       .  S
C469        C470   1.397       .  A
C469        C474   1.403       .  A
C469        H485   1.083       .  S
C470        C471   1.403       .  A
C470        H486   1.084       .  S
C471        C481   1.398       .  A
C471        C472   1.409       .  A
C472        C478   1.414       .  A
C472        C473   1.412       .  A
C473        C475   1.410       .  A
C473        C474   1.412       .  A
C474        C482   1.401       .  A
C475        C484   1.404       .  A
C475        C476   1.405       .  A
C476        C477   1.401       .  A
C476        H487   1.083       .  S
C477        C478   1.404       .  A
C477        H488   1.084       .  S
C478        C479   1.408       .  A
C479        C480   1.405       .  A
C479        H489   1.084       .  S
C480        C481   1.407       .  A
C481        H490   1.085       .  S
C482        C483   1.407       .  A
C482        H491   1.084       .  S
C483        C484   1.410       .  A
C484        H492   1.084       .  S
C493        C494   1.401       .  A
C493        C498   1.405       .  A
C493        H509   1.083       .  S
C494        C495   1.404       .  A
C494        H510   1.084       .  S
C495        C505   1.408       .  A
C495        C496   1.413       .  A
C496        C502   1.410       .  A
C496        C497   1.412       .  A
C497        C499   1.411       .  A
C497        C498   1.410       .  A
C498        C506   1.405       .  A
C499        C508   1.400       .  A
C499        C500   1.402       .  A
C500        C501   1.396       .  A
C500        H511   1.084       .  S
C501        C502   1.403       .  A
C501        H512   1.084       .  S
C502        C503   1.397       .  A
C503        C504   1.407       .  A
C503        H513   1.084       .  S
C504        C505   1.406       .  A
C505        H514   1.084       .  S
C506        C507   1.409       .  A
C506        H515   1.084       .  S
C507        C508   1.407       .  A
C508        H516   1.084       .  S
C517        C518   1.397       .  A
C517        C522   1.403       .  A
C517        H533   1.084       .  S
C518        C519   1.403       .  A
C518        H534   1.084       .  S
C519        C529   1.399       .  A
C519        C520   1.409       .  A
C520        C526   1.414       .  A
C520        C521   1.412       .  A
C521        C523   1.410       .  A
C521        C522   1.412       .  A
C522        C530   1.402       .  A
C523        C532   1.404       .  A
C523        C524   1.405       .  A
C524        C525   1.401       .  A
C524        H535   1.083       .  S
C525        C526   1.404       .  A
C525        H536   1.084       .  S
C526        C527   1.408       .  A
C527        C528   1.405       .  A
C527        H537   1.084       .  S
C528        C529   1.407       .  A
C529        H538   1.085       .  S
C530        C531   1.407       .  A
C530        H539   1.084       .  S
C531        C532   1.410       .  A
C532        H540   1.084       .  S
C541        C542   1.398       .  A
C541        C546   1.404       .  A
C541        H557   1.084       .  S
C542        C543   1.403       .  A
C542        H558   1.083       .  S
C543        C553   1.404       .  A
C543        C544   1.413       .  A
C544        C550   1.409       .  A
C544        C545   1.412       .  A
C545        C547   1.414       .  A
C545        C546   1.410       .  A
C546        C554   1.400       .  A
C547        C556   1.406       .  A
C547        C548   1.403       .  A
C548        C549   1.400       .  A
C548        H559   1.084       .  S
C549        C550   1.405       .  A
C549        H560   1.083       .  S
C550        C551   1.403       .  A
C551        C552   1.411       .  A
C551        H561   1.084       .  S
C552        C553   1.407       .  A
C553        H562   1.084       .  S
C554        C555   1.406       .  A
C554        H563   1.085       .  S
C555        C556   1.404       .  A
C556        H564   1.084       .  S
C565        C566   1.402       .  A
C565        C570   1.405       .  A
C565        H581   1.083       .  S
C566        C567   1.404       .  A
C566        H582   1.084       .  S
C567        C577   1.409       .  A
C567        C568   1.414       .  A
C568        C574   1.409       .  A
C568        C569   1.412       .  A
C569        C571   1.412       .  A
C569        C570   1.410       .  A
C570        C578   1.406       .  A
C571        C580   1.400       .  A
C571        C572   1.402       .  A
C572        C573   1.396       .  A
C572        H583   1.084       .  S
C573        C574   1.403       .  A
C573        H584   1.084       .  S
C574        C575   1.397       .  A
C575        C576   1.407       .  A
C575        H585   1.085       .  S
C576        C577   1.406       .  A
C577        H586   1.084       .  S
C578        C579   1.410       .  A
C578        H587   1.084       .  S
C579        C580   1.407       .  A
C580        H588   1.084       .  S
C589        C590   1.395       .  A
C589        C594   1.402       .  A
C589        H605   1.084       .  S
C590        C591   1.402       .  A
C590        H606   1.083       .  S
C591        C601   1.398       .  A
C591        C592   1.411       .  A
C592        C598   1.411       .  A
C592        C593   1.412       .  A
C593        C595   1.413       .  A
C593        C594   1.410       .  A
C594        C602   1.396       .  A
C595        C604   1.410       .  A
C595        C596   1.405       .  A
C596        C597   1.403       .  A
C596        H607   1.084       .  S
C597        C598   1.405       .  A
C597        H608   1.083       .  S
C598        C599   1.408       .  A
C599        C600   1.411       .  A
C599        H609   1.083       .  S
C600        C601   1.408       .  A
C601        H610   1.084       .  S
C602        C603   1.406       .  A
C602        H611   1.085       .  S
C603        C604   1.407       .  A
C604        H612   1.084       .  S
C613        C614   1.402       .  A
C613        C618   1.404       .  A
C613        H629   1.084       .  S
C614        C615   1.405       .  A
C614        H630   1.083       .  S
C615        C625   1.407       .  A
C615        C616   1.411       .  A
C616        C622   1.411       .  A
C616        C617   1.412       .  A
C617        C619   1.410       .  A
C617        C618   1.413       .  A
C618        C626   1.408       .  A
C619        C628   1.398       .  A
C619        C620   1.402       .  A
C620        C621   1.396       .  A
C620        H631   1.084       .  S
C621        C622   1.402       .  A
C621        H632   1.083       .  S
C622        C623   1.399       .  A
C623        C624   1.407       .  A
C623        H633   1.084       .  S
C624        C625   1.410       .  A
C625        H634   1.083       .  S
C626        C627   1.406       .  A
C626        H635   1.084       .  S
C627        C628   1.405       .  A
C628        H636   1.085       .  S
C637        C638   1.400       .  A
C637        C642   1.403       .  A
C637        H653   1.084       .  S
C638        C639   1.405       .  A
C638        H654   1.083       .  S
C639        C649   1.402       .  A
C639        C640   1.409       .  A
C640        C646   1.412       .  A
C640        C641   1.411       .  A
C641        C643   1.410       .  A
C641        C642   1.414       .  A
C642        C650   1.405       .  A
C643        C652   1.398       .  A
C643        C644   1.403       .  A
C644        C645   1.397       .  A
C644        H655   1.084       .  S
C645        C646   1.402       .  A
C645        H656   1.083       .  S
C646        C647   1.402       .  A
C647        C648   1.406       .  A
C647        H657   1.084       .  S
C648        C649   1.411       .  A
C649        H658   1.084       .  S
C650        C651   1.404       .  A
C650        H659   1.084       .  S
C651        C652   1.405       .  A
C652        H660   1.085       .  S
C661        C662   1.398       .  A
C661        C666   1.403       .  A
C661        H677   1.084       .  S
C662        C663   1.403       .  A
C662        H678   1.083       .  S
C663        C673   1.405       .  A
C663        C664   1.413       .  A
C664        C670   1.409       .  A
C664        C665   1.414       .  A
C665        C667   1.415       .  A
C665        C666   1.409       .  A
C666        C674   1.399       .  A
C667        C676   1.409       .  A
C667        C668   1.404       .  A
C668        C669   1.401       .  A
C668        H679   1.084       .  S
C669        C670   1.405       .  A
C669        H680   1.083       .  S
C670        C671   1.404       .  A
C671        C672   1.412       .  A
C671        H681   1.084       .  S
C672        C673   1.407       .  A
C673        H682   1.084       .  S
C674        C675   1.407       .  A
C674        H683   1.085       .  S
C675        C676   1.406       .  A
C676        H684   1.084       .  S
C685        C686   1.398       .  A
C685        C690   1.403       .  A
C685        H701   1.084       .  S
C686        C687   1.403       .  A
C686        H702   1.083       .  S
C687        C697   1.402       .  A
C687        C688   1.411       .  A
C688        C694   1.411       .  A
C688        C689   1.412       .  A
C689        C691   1.413       .  A
C689        C690   1.410       .  A
C690        C698   1.400       .  A
C691        C700   1.407       .  A
C691        C692   1.403       .  A
C692        C693   1.400       .  A
C692        H703   1.084       .  S
C693        C694   1.404       .  A
C693        H704   1.083       .  S
C694        C695   1.405       .  A
C695        C696   1.409       .  A
C695        H705   1.084       .  S
C696        C697   1.409       .  A
C697        H706   1.084       .  S
C698        C699   1.407       .  A
C698        H707   1.084       .  S
C699        C700   1.405       .  A
C700        H708   1.084       .  S
C709        C710   1.402       .  A
C709        C714   1.404       .  A
C709        H725   1.084       .  S
C710        C711   1.405       .  A
C710        H726   1.083       .  S
C711        C721   1.407       .  A
C711        C712   1.411       .  A
C712        C718   1.411       .  A
C712        C713   1.412       .  A
C713        C715   1.410       .  A
C713        C714   1.413       .  A
C714        C722   1.408       .  A
C715        C724   1.397       .  A
C715        C716   1.402       .  A
C716        C717   1.396       .  A
C716        H727   1.084       .  S
C717        C718   1.402       .  A
C717        H728   1.084       .  S
C718        C719   1.399       .  A
C719        C720   1.408       .  A
C719        H729   1.084       .  S
C720        C721   1.410       .  A
C721        H730   1.084       .  S
C722        C723   1.406       .  A
C722        H731   1.084       .  S
C723        C724   1.405       .  A
C724        H732   1.085       .  S
O733        C743   1.274       .  A
O733      Cu1107   1.978   1_545  S
O734        C744   1.274       .  A
O734       Cu741   1.978   1_556  S
O735        C745   1.281       .  A
O735       Cu741   2.035       .  S
O736        C746   1.281       .  A
O736      Cu1107   2.038   1_546  S
O737        C746   1.274       .  A
O737       Cu742   1.977   1_556  S
O738        C745   1.273       .  A
O738      Cu1108   1.975       .  S
O739        C744   1.283       .  A
O739      Cu1108   2.043   1_556  S
O740        C743   1.282       .  A
O740       Cu742   2.046       .  S
Cu741      O1099   1.978       .  S
Cu741      O1102   2.038   1_554  S
Cu741     Cu1108   2.366       .  S
Cu742      O1104   1.975   1_545  S
Cu742      O1105   2.043   1_544  S
Cu742     Cu1107   2.366   1_545  S
C743       C1041   1.478       .  S
C744       C1065   1.477       .  S
C745       C1017   1.471       .  S
C746       C1089   1.474       .  S
C747        C990   1.486       .  S
C747        N748   1.360       .  A
C747        N752   1.361       .  A
N748        C749   1.356       .  A
C749        N750   1.357       .  A
N750        C751   1.361       .  A
C751       C1062   1.486       .  S
C751        N752   1.362       .  A
C753        C966   1.487       .  S
C753        N754   1.362       .  A
C753        N758   1.360       .  A
N754        C755   1.363       .  A
C755       C1086   1.485       .  S
C755        N756   1.360       .  A
N756        C757   1.354       .  A
C757        N758   1.355       .  A
O759        C769   1.273       .  A
O760        C770   1.273       .  A
O760       Cu767   1.970       .  S
O761        C771   1.282       .  A
O761       Cu767   2.041       .  S
O762        C772   1.282       .  A
O763        C772   1.274       .  A
O763       Cu768   1.976   1_655  S
O764        C771   1.273       .  A
O765        C770   1.282       .  A
O766        C769   1.283       .  A
O766       Cu768   2.049   1_655  S
C769        C894   1.477       .  S
C770        C942   1.478       .  S
C771        C921   1.474       .  S
C772        C870   1.478       .  S
C773       C1038   1.490       .  S
C773        N774   1.364       .  A
C773        N778   1.358       .  A
N774        C775   1.363       .  A
C775        C783   1.476       .  S
C775        N776   1.359       .  A
N776        C777   1.359       .  A
C777        C897   1.484       .  S
C777        N778   1.356       .  A
C779        C918   1.485       .  S
C779        N780   1.356       .  A
C779        N784   1.361       .  A
N780        C781   1.356       .  A
C781       C1014   1.483       .  S
C781        N782   1.361       .  A
N782        C783   1.360       .  A
C783        N784   1.362       .  A
O785        C795   1.274       .  A
O785       Cu793   1.978       .  S
O786        C796   1.274       .  A
O786       Cu793   1.980       .  S
O787        C797   1.282       .  A
O787       Cu793   2.043       .  S
O788        C798   1.282       .  A
O788       Cu793   2.042       .  S
O789        C798   1.274       .  A
O789       Cu794   1.975       .  S
O790        C797   1.274       .  A
O790       Cu794   1.975       .  S
O791        C796   1.281       .  A
O791       Cu794   2.041       .  S
O792        C795   1.281       .  A
O792       Cu794   2.038       .  S
Cu793      Cu794   2.367       .  S
C795        C993   1.475       .  S
C796        C822   1.476       .  S
C797        C969   1.479       .  S
C798        C846   1.476       .  S
C799        C825   1.486       .  S
C799        N800   1.360       .  A
C799        N804   1.363       .  A
N800        C801   1.358       .  A
C801        C873   1.484       .  S
C801        N802   1.358       .  A
N802        C803   1.356       .  A
C803       C1175   1.472   1_545  S
C803        N804   1.359       .  A
C805        C849   1.486       .  S
C805        N806   1.360       .  A
C805        N810   1.362       .  A
N806        C807   1.359       .  A
C807        C945   1.486       .  S
C807        N808   1.359       .  A
N808        C809   1.357       .  A
C809       C1169   1.472       .  S
C809        N810   1.358       .  A
C811        C812   1.397       .  A
C811        C816   1.402       .  A
C811        H827   1.084       .  S
C812        C813   1.403       .  A
C812        H828   1.084       .  S
C813        C823   1.398       .  A
C813        C814   1.410       .  A
C814        C820   1.414       .  A
C814        C815   1.412       .  A
C815        C817   1.410       .  A
C815        C816   1.412       .  A
C816        C824   1.401       .  A
C817        C826   1.405       .  A
C817        C818   1.405       .  A
C818        C819   1.401       .  A
C818        H829   1.083       .  S
C819        C820   1.404       .  A
C819        H830   1.084       .  S
C820        C821   1.409       .  A
C821        C822   1.406       .  A
C821        H831   1.084       .  S
C822        C823   1.405       .  A
C823        H832   1.085       .  S
C824        C825   1.407       .  A
C824        H833   1.084       .  S
C825        C826   1.411       .  A
C826        H834   1.084       .  S
C835        C836   1.397       .  A
C835        C840   1.403       .  A
C835        H851   1.083       .  S
C836        C837   1.403       .  A
C836        H852   1.084       .  S
C837        C847   1.398       .  A
C837        C838   1.409       .  A
C838        C844   1.414       .  A
C838        C839   1.412       .  A
C839        C841   1.410       .  A
C839        C840   1.412       .  A
C840        C848   1.401       .  A
C841        C850   1.404       .  A
C841        C842   1.405       .  A
C842        C843   1.401       .  A
C842        H853   1.083       .  S
C843        C844   1.404       .  A
C843        H854   1.084       .  S
C844        C845   1.408       .  A
C845        C846   1.405       .  A
C845        H855   1.084       .  S
C846        C847   1.407       .  A
C847        H856   1.085       .  S
C848        C849   1.407       .  A
C848        H857   1.084       .  S
C849        C850   1.410       .  A
C850        H858   1.084       .  S
C859        C860   1.401       .  A
C859        C864   1.405       .  A
C859        H875   1.083       .  S
C860        C861   1.404       .  A
C860        H876   1.084       .  S
C861        C871   1.408       .  A
C861        C862   1.413       .  A
C862        C868   1.410       .  A
C862        C863   1.412       .  A
C863        C865   1.411       .  A
C863        C864   1.410       .  A
C864        C872   1.405       .  A
C865        C874   1.400       .  A
C865        C866   1.402       .  A
C866        C867   1.396       .  A
C866        H877   1.084       .  S
C867        C868   1.403       .  A
C867        H878   1.084       .  S
C868        C869   1.397       .  A
C869        C870   1.407       .  A
C869        H879   1.084       .  S
C870        C871   1.406       .  A
C871        H880   1.084       .  S
C872        C873   1.409       .  A
C872        H881   1.084       .  S
C873        C874   1.407       .  A
C874        H882   1.084       .  S
C883        C884   1.397       .  A
C883        C888   1.403       .  A
C883        H899   1.084       .  S
C884        C885   1.403       .  A
C884        H900   1.084       .  S
C885        C895   1.399       .  A
C885        C886   1.409       .  A
C886        C892   1.414       .  A
C886        C887   1.412       .  A
C887        C889   1.410       .  A
C887        C888   1.412       .  A
C888        C896   1.402       .  A
C889        C898   1.404       .  A
C889        C890   1.405       .  A
C890        C891   1.401       .  A
C890        H901   1.083       .  S
C891        C892   1.404       .  A
C891        H902   1.084       .  S
C892        C893   1.408       .  A
C893        C894   1.405       .  A
C893        H903   1.084       .  S
C894        C895   1.407       .  A
C895        H904   1.085       .  S
C896        C897   1.407       .  A
C896        H905   1.084       .  S
C897        C898   1.410       .  A
C898        H906   1.084       .  S
C907        C908   1.398       .  A
C907        C912   1.404       .  A
C907        H923   1.084       .  S
C908        C909   1.403       .  A
C908        H924   1.083       .  S
C909        C919   1.404       .  A
C909        C910   1.413       .  A
C910        C916   1.409       .  A
C910        C911   1.412       .  A
C911        C913   1.414       .  A
C911        C912   1.410       .  A
C912        C920   1.400       .  A
C913        C922   1.406       .  A
C913        C914   1.403       .  A
C914        C915   1.400       .  A
C914        H925   1.084       .  S
C915        C916   1.405       .  A
C915        H926   1.083       .  S
C916        C917   1.403       .  A
C917        C918   1.411       .  A
C917        H927   1.084       .  S
C918        C919   1.407       .  A
C919        H928   1.084       .  S
C920        C921   1.406       .  A
C920        H929   1.085       .  S
C921        C922   1.404       .  A
C922        H930   1.084       .  S
C931        C932   1.402       .  A
C931        C936   1.405       .  A
C931        H947   1.083       .  S
C932        C933   1.404       .  A
C932        H948   1.084       .  S
C933        C943   1.409       .  A
C933        C934   1.414       .  A
C934        C940   1.409       .  A
C934        C935   1.412       .  A
C935        C937   1.412       .  A
C935        C936   1.410       .  A
C936        C944   1.406       .  A
C937        C946   1.400       .  A
C937        C938   1.402       .  A
C938        C939   1.396       .  A
C938        H949   1.084       .  S
C939        C940   1.403       .  A
C939        H950   1.084       .  S
C940        C941   1.397       .  A
C941        C942   1.407       .  A
C941        H951   1.085       .  S
C942        C943   1.406       .  A
C943        H952   1.084       .  S
C944        C945   1.410       .  A
C944        H953   1.084       .  S
C945        C946   1.407       .  A
C946        H954   1.084       .  S
C955        C956   1.395       .  A
C955        C960   1.402       .  A
C955        H971   1.084       .  S
C956        C957   1.402       .  A
C956        H972   1.083       .  S
C957        C967   1.398       .  A
C957        C958   1.411       .  A
C958        C964   1.411       .  A
C958        C959   1.412       .  A
C959        C961   1.413       .  A
C959        C960   1.410       .  A
C960        C968   1.396       .  A
C961        C970   1.410       .  A
C961        C962   1.405       .  A
C962        C963   1.403       .  A
C962        H973   1.084       .  S
C963        C964   1.405       .  A
C963        H974   1.083       .  S
C964        C965   1.408       .  A
C965        C966   1.411       .  A
C965        H975   1.083       .  S
C966        C967   1.408       .  A
C967        H976   1.084       .  S
C968        C969   1.406       .  A
C968        H977   1.085       .  S
C969        C970   1.407       .  A
C970        H978   1.084       .  S
C979        C980   1.402       .  A
C979        C984   1.404       .  A
C979        H995   1.084       .  S
C980        C981   1.405       .  A
C980        H996   1.083       .  S
C981        C991   1.407       .  A
C981        C982   1.411       .  A
C982        C988   1.411       .  A
C982        C983   1.412       .  A
C983        C985   1.410       .  A
C983        C984   1.413       .  A
C984        C992   1.408       .  A
C985        C994   1.398       .  A
C985        C986   1.402       .  A
C986        C987   1.396       .  A
C986        H997   1.084       .  S
C987        C988   1.402       .  A
C987        H998   1.083       .  S
C988        C989   1.399       .  A
C989        C990   1.407       .  A
C989        H999   1.084       .  S
C990        C991   1.410       .  A
C991       H1000   1.083       .  S
C992        C993   1.406       .  A
C992       H1001   1.084       .  S
C993        C994   1.405       .  A
C994       H1002   1.085       .  S
C1003      C1004   1.400       .  A
C1003      C1008   1.403       .  A
C1003      H1019   1.084       .  S
C1004      C1005   1.405       .  A
C1004      H1020   1.083       .  S
C1005      C1015   1.402       .  A
C1005      C1006   1.409       .  A
C1006      C1012   1.412       .  A
C1006      C1007   1.411       .  A
C1007      C1009   1.410       .  A
C1007      C1008   1.414       .  A
C1008      C1016   1.405       .  A
C1009      C1018   1.398       .  A
C1009      C1010   1.403       .  A
C1010      C1011   1.397       .  A
C1010      H1021   1.084       .  S
C1011      C1012   1.402       .  A
C1011      H1022   1.083       .  S
C1012      C1013   1.402       .  A
C1013      C1014   1.406       .  A
C1013      H1023   1.084       .  S
C1014      C1015   1.411       .  A
C1015      H1024   1.084       .  S
C1016      C1017   1.404       .  A
C1016      H1025   1.084       .  S
C1017      C1018   1.405       .  A
C1018      H1026   1.085       .  S
C1027      C1028   1.398       .  A
C1027      C1032   1.403       .  A
C1027      H1043   1.084       .  S
C1028      C1029   1.403       .  A
C1028      H1044   1.083       .  S
C1029      C1039   1.405       .  A
C1029      C1030   1.413       .  A
C1030      C1036   1.409       .  A
C1030      C1031   1.414       .  A
C1031      C1033   1.415       .  A
C1031      C1032   1.409       .  A
C1032      C1040   1.399       .  A
C1033      C1042   1.409       .  A
C1033      C1034   1.404       .  A
C1034      C1035   1.401       .  A
C1034      H1045   1.084       .  S
C1035      C1036   1.405       .  A
C1035      H1046   1.083       .  S
C1036      C1037   1.404       .  A
C1037      C1038   1.412       .  A
C1037      H1047   1.084       .  S
C1038      C1039   1.407       .  A
C1039      H1048   1.084       .  S
C1040      C1041   1.407       .  A
C1040      H1049   1.085       .  S
C1041      C1042   1.406       .  A
C1042      H1050   1.084       .  S
C1051      C1052   1.398       .  A
C1051      C1056   1.403       .  A
C1051      H1067   1.084       .  S
C1052      C1053   1.403       .  A
C1052      H1068   1.083       .  S
C1053      C1063   1.402       .  A
C1053      C1054   1.411       .  A
C1054      C1060   1.411       .  A
C1054      C1055   1.412       .  A
C1055      C1057   1.413       .  A
C1055      C1056   1.410       .  A
C1056      C1064   1.400       .  A
C1057      C1066   1.407       .  A
C1057      C1058   1.403       .  A
C1058      C1059   1.400       .  A
C1058      H1069   1.084       .  S
C1059      C1060   1.404       .  A
C1059      H1070   1.083       .  S
C1060      C1061   1.405       .  A
C1061      C1062   1.409       .  A
C1061      H1071   1.084       .  S
C1062      C1063   1.409       .  A
C1063      H1072   1.084       .  S
C1064      C1065   1.407       .  A
C1064      H1073   1.084       .  S
C1065      C1066   1.405       .  A
C1066      H1074   1.084       .  S
C1075      C1076   1.402       .  A
C1075      C1080   1.404       .  A
C1075      H1091   1.084       .  S
C1076      C1077   1.405       .  A
C1076      H1092   1.083       .  S
C1077      C1087   1.407       .  A
C1077      C1078   1.411       .  A
C1078      C1084   1.411       .  A
C1078      C1079   1.412       .  A
C1079      C1081   1.410       .  A
C1079      C1080   1.413       .  A
C1080      C1088   1.408       .  A
C1081      C1090   1.397       .  A
C1081      C1082   1.402       .  A
C1082      C1083   1.396       .  A
C1082      H1093   1.084       .  S
C1083      C1084   1.402       .  A
C1083      H1094   1.084       .  S
C1084      C1085   1.399       .  A
C1085      C1086   1.408       .  A
C1085      H1095   1.084       .  S
C1086      C1087   1.410       .  A
C1087      H1096   1.084       .  S
C1088      C1089   1.406       .  A
C1088      H1097   1.084       .  S
C1089      C1090   1.405       .  A
C1090      H1098   1.085       .  S
O1099      C1109   1.274       .  A
O1100      C1110   1.274       .  A
O1100     Cu1107   1.978   1_556  S
O1101      C1111   1.281       .  A
O1101     Cu1107   2.035       .  S
O1102      C1112   1.281       .  A
O1103      C1112   1.274       .  A
O1103     Cu1108   1.977   1_556  S
O1104      C1111   1.273       .  A
O1105      C1110   1.283       .  A
O1106      C1109   1.282       .  A
O1106     Cu1108   2.046       .  S
C1109      C1407   1.478       .  S
C1110      C1431   1.477       .  S
C1111      C1383   1.471       .  S
C1112      C1455   1.474       .  S
C1113      C1356   1.486       .  S
C1113      N1114   1.360       .  A
C1113      N1118   1.361       .  A
N1114      C1115   1.356       .  A
C1115      N1116   1.357       .  A
N1116      C1117   1.361       .  A
C1117      C1428   1.486       .  S
C1117      N1118   1.362       .  A
C1119      C1332   1.487       .  S
C1119      N1120   1.362       .  A
C1119      N1124   1.360       .  A
N1120      C1121   1.363       .  A
C1121      C1452   1.485       .  S
C1121      N1122   1.360       .  A
N1122      C1123   1.354       .  A
C1123      N1124   1.355       .  A
O1125      C1135   1.273       .  A
O1126      C1136   1.273       .  A
O1126     Cu1133   1.970       .  S
O1127      C1137   1.282       .  A
O1127     Cu1133   2.041       .  S
O1128      C1138   1.282       .  A
O1129      C1138   1.274       .  A
O1129     Cu1134   1.976   1_655  S
O1130      C1137   1.273       .  A
O1131      C1136   1.282       .  A
O1132      C1135   1.283       .  A
O1132     Cu1134   2.049   1_655  S
C1135      C1260   1.477       .  S
C1136      C1308   1.478       .  S
C1137      C1287   1.474       .  S
C1138      C1236   1.478       .  S
C1139      C1404   1.490       .  S
C1139      N1140   1.364       .  A
C1139      N1144   1.358       .  A
N1140      C1141   1.363       .  A
C1141      C1149   1.476       .  S
C1141      N1142   1.359       .  A
N1142      C1143   1.359       .  A
C1143      C1263   1.484       .  S
C1143      N1144   1.356       .  A
C1145      C1284   1.485       .  S
C1145      N1146   1.356       .  A
C1145      N1150   1.361       .  A
N1146      C1147   1.356       .  A
C1147      C1380   1.483       .  S
C1147      N1148   1.361       .  A
N1148      C1149   1.360       .  A
C1149      N1150   1.362       .  A
O1151      C1161   1.274       .  A
O1151     Cu1159   1.978       .  S
O1152      C1162   1.274       .  A
O1152     Cu1159   1.980       .  S
O1153      C1163   1.282       .  A
O1153     Cu1159   2.043       .  S
O1154      C1164   1.282       .  A
O1154     Cu1159   2.042       .  S
O1155      C1164   1.274       .  A
O1155     Cu1160   1.975       .  S
O1156      C1163   1.274       .  A
O1156     Cu1160   1.975       .  S
O1157      C1162   1.281       .  A
O1157     Cu1160   2.041       .  S
O1158      C1161   1.281       .  A
O1158     Cu1160   2.038       .  S
Cu1159    Cu1160   2.367       .  S
C1161      C1359   1.475       .  S
C1162      C1188   1.476       .  S
C1163      C1335   1.479       .  S
C1164      C1212   1.476       .  S
C1165      C1191   1.486       .  S
C1165      N1166   1.360       .  A
C1165      N1170   1.363       .  A
N1166      C1167   1.358       .  A
C1167      C1239   1.484       .  S
C1167      N1168   1.358       .  A
N1168      C1169   1.356       .  A
C1169      N1170   1.359       .  A
C1171      C1215   1.486       .  S
C1171      N1172   1.360       .  A
C1171      N1176   1.362       .  A
N1172      C1173   1.359       .  A
C1173      C1311   1.486       .  S
C1173      N1174   1.359       .  A
N1174      C1175   1.357       .  A
C1175      N1176   1.358       .  A
C1177      C1178   1.397       .  A
C1177      C1182   1.402       .  A
C1177      H1193   1.084       .  S
C1178      C1179   1.403       .  A
C1178      H1194   1.084       .  S
C1179      C1189   1.398       .  A
C1179      C1180   1.410       .  A
C1180      C1186   1.414       .  A
C1180      C1181   1.412       .  A
C1181      C1183   1.410       .  A
C1181      C1182   1.412       .  A
C1182      C1190   1.401       .  A
C1183      C1192   1.405       .  A
C1183      C1184   1.405       .  A
C1184      C1185   1.401       .  A
C1184      H1195   1.083       .  S
C1185      C1186   1.404       .  A
C1185      H1196   1.084       .  S
C1186      C1187   1.409       .  A
C1187      C1188   1.406       .  A
C1187      H1197   1.084       .  S
C1188      C1189   1.405       .  A
C1189      H1198   1.085       .  S
C1190      C1191   1.407       .  A
C1190      H1199   1.084       .  S
C1191      C1192   1.411       .  A
C1192      H1200   1.084       .  S
C1201      C1202   1.397       .  A
C1201      C1206   1.403       .  A
C1201      H1217   1.083       .  S
C1202      C1203   1.403       .  A
C1202      H1218   1.084       .  S
C1203      C1213   1.398       .  A
C1203      C1204   1.409       .  A
C1204      C1210   1.414       .  A
C1204      C1205   1.412       .  A
C1205      C1207   1.410       .  A
C1205      C1206   1.412       .  A
C1206      C1214   1.401       .  A
C1207      C1216   1.404       .  A
C1207      C1208   1.405       .  A
C1208      C1209   1.401       .  A
C1208      H1219   1.083       .  S
C1209      C1210   1.404       .  A
C1209      H1220   1.084       .  S
C1210      C1211   1.408       .  A
C1211      C1212   1.405       .  A
C1211      H1221   1.084       .  S
C1212      C1213   1.407       .  A
C1213      H1222   1.085       .  S
C1214      C1215   1.407       .  A
C1214      H1223   1.084       .  S
C1215      C1216   1.410       .  A
C1216      H1224   1.084       .  S
C1225      C1226   1.401       .  A
C1225      C1230   1.405       .  A
C1225      H1241   1.083       .  S
C1226      C1227   1.404       .  A
C1226      H1242   1.084       .  S
C1227      C1237   1.408       .  A
C1227      C1228   1.413       .  A
C1228      C1234   1.410       .  A
C1228      C1229   1.412       .  A
C1229      C1231   1.411       .  A
C1229      C1230   1.410       .  A
C1230      C1238   1.405       .  A
C1231      C1240   1.400       .  A
C1231      C1232   1.402       .  A
C1232      C1233   1.396       .  A
C1232      H1243   1.084       .  S
C1233      C1234   1.403       .  A
C1233      H1244   1.084       .  S
C1234      C1235   1.397       .  A
C1235      C1236   1.407       .  A
C1235      H1245   1.084       .  S
C1236      C1237   1.406       .  A
C1237      H1246   1.084       .  S
C1238      C1239   1.409       .  A
C1238      H1247   1.084       .  S
C1239      C1240   1.407       .  A
C1240      H1248   1.084       .  S
C1249      C1250   1.397       .  A
C1249      C1254   1.403       .  A
C1249      H1265   1.084       .  S
C1250      C1251   1.403       .  A
C1250      H1266   1.084       .  S
C1251      C1261   1.399       .  A
C1251      C1252   1.409       .  A
C1252      C1258   1.414       .  A
C1252      C1253   1.412       .  A
C1253      C1255   1.410       .  A
C1253      C1254   1.412       .  A
C1254      C1262   1.402       .  A
C1255      C1264   1.404       .  A
C1255      C1256   1.405       .  A
C1256      C1257   1.401       .  A
C1256      H1267   1.083       .  S
C1257      C1258   1.404       .  A
C1257      H1268   1.084       .  S
C1258      C1259   1.408       .  A
C1259      C1260   1.405       .  A
C1259      H1269   1.084       .  S
C1260      C1261   1.407       .  A
C1261      H1270   1.085       .  S
C1262      C1263   1.407       .  A
C1262      H1271   1.084       .  S
C1263      C1264   1.410       .  A
C1264      H1272   1.084       .  S
C1273      C1274   1.398       .  A
C1273      C1278   1.404       .  A
C1273      H1289   1.084       .  S
C1274      C1275   1.403       .  A
C1274      H1290   1.083       .  S
C1275      C1285   1.404       .  A
C1275      C1276   1.413       .  A
C1276      C1282   1.409       .  A
C1276      C1277   1.412       .  A
C1277      C1279   1.414       .  A
C1277      C1278   1.410       .  A
C1278      C1286   1.400       .  A
C1279      C1288   1.406       .  A
C1279      C1280   1.403       .  A
C1280      C1281   1.400       .  A
C1280      H1291   1.084       .  S
C1281      C1282   1.405       .  A
C1281      H1292   1.083       .  S
C1282      C1283   1.403       .  A
C1283      C1284   1.410       .  A
C1283      H1293   1.084       .  S
C1284      C1285   1.407       .  A
C1285      H1294   1.084       .  S
C1286      C1287   1.406       .  A
C1286      H1295   1.085       .  S
C1287      C1288   1.404       .  A
C1288      H1296   1.084       .  S
C1297      C1298   1.402       .  A
C1297      C1302   1.405       .  A
C1297      H1313   1.083       .  S
C1298      C1299   1.404       .  A
C1298      H1314   1.084       .  S
C1299      C1309   1.409       .  A
C1299      C1300   1.414       .  A
C1300      C1306   1.409       .  A
C1300      C1301   1.412       .  A
C1301      C1303   1.412       .  A
C1301      C1302   1.410       .  A
C1302      C1310   1.406       .  A
C1303      C1312   1.400       .  A
C1303      C1304   1.402       .  A
C1304      C1305   1.396       .  A
C1304      H1315   1.084       .  S
C1305      C1306   1.403       .  A
C1305      H1316   1.084       .  S
C1306      C1307   1.397       .  A
C1307      C1308   1.407       .  A
C1307      H1317   1.085       .  S
C1308      C1309   1.406       .  A
C1309      H1318   1.084       .  S
C1310      C1311   1.410       .  A
C1310      H1319   1.084       .  S
C1311      C1312   1.407       .  A
C1312      H1320   1.084       .  S
C1321      C1322   1.395       .  A
C1321      C1326   1.402       .  A
C1321      H1337   1.084       .  S
C1322      C1323   1.402       .  A
C1322      H1338   1.083       .  S
C1323      C1333   1.398       .  A
C1323      C1324   1.411       .  A
C1324      C1330   1.411       .  A
C1324      C1325   1.412       .  A
C1325      C1327   1.413       .  A
C1325      C1326   1.410       .  A
C1326      C1334   1.396       .  A
C1327      C1336   1.410       .  A
C1327      C1328   1.405       .  A
C1328      C1329   1.403       .  A
C1328      H1339   1.084       .  S
C1329      C1330   1.405       .  A
C1329      H1340   1.083       .  S
C1330      C1331   1.408       .  A
C1331      C1332   1.411       .  A
C1331      H1341   1.083       .  S
C1332      C1333   1.408       .  A
C1333      H1342   1.084       .  S
C1334      C1335   1.406       .  A
C1334      H1343   1.085       .  S
C1335      C1336   1.407       .  A
C1336      H1344   1.084       .  S
C1345      C1346   1.402       .  A
C1345      C1350   1.404       .  A
C1345      H1361   1.084       .  S
C1346      C1347   1.405       .  A
C1346      H1362   1.083       .  S
C1347      C1357   1.407       .  A
C1347      C1348   1.411       .  A
C1348      C1354   1.411       .  A
C1348      C1349   1.412       .  A
C1349      C1351   1.410       .  A
C1349      C1350   1.413       .  A
C1350      C1358   1.408       .  A
C1351      C1360   1.398       .  A
C1351      C1352   1.402       .  A
C1352      C1353   1.396       .  A
C1352      H1363   1.084       .  S
C1353      C1354   1.402       .  A
C1353      H1364   1.083       .  S
C1354      C1355   1.399       .  A
C1355      C1356   1.407       .  A
C1355      H1365   1.084       .  S
C1356      C1357   1.410       .  A
C1357      H1366   1.083       .  S
C1358      C1359   1.406       .  A
C1358      H1367   1.084       .  S
C1359      C1360   1.405       .  A
C1360      H1368   1.085       .  S
C1369      C1370   1.400       .  A
C1369      C1374   1.403       .  A
C1369      H1385   1.084       .  S
C1370      C1371   1.405       .  A
C1370      H1386   1.083       .  S
C1371      C1381   1.402       .  A
C1371      C1372   1.409       .  A
C1372      C1378   1.412       .  A
C1372      C1373   1.411       .  A
C1373      C1375   1.410       .  A
C1373      C1374   1.414       .  A
C1374      C1382   1.405       .  A
C1375      C1384   1.398       .  A
C1375      C1376   1.403       .  A
C1376      C1377   1.397       .  A
C1376      H1387   1.084       .  S
C1377      C1378   1.402       .  A
C1377      H1388   1.083       .  S
C1378      C1379   1.402       .  A
C1379      C1380   1.406       .  A
C1379      H1389   1.084       .  S
C1380      C1381   1.411       .  A
C1381      H1390   1.084       .  S
C1382      C1383   1.404       .  A
C1382      H1391   1.084       .  S
C1383      C1384   1.405       .  A
C1384      H1392   1.085       .  S
C1393      C1394   1.398       .  A
C1393      C1398   1.403       .  A
C1393      H1409   1.084       .  S
C1394      C1395   1.403       .  A
C1394      H1410   1.083       .  S
C1395      C1405   1.405       .  A
C1395      C1396   1.413       .  A
C1396      C1402   1.409       .  A
C1396      C1397   1.414       .  A
C1397      C1399   1.415       .  A
C1397      C1398   1.409       .  A
C1398      C1406   1.399       .  A
C1399      C1408   1.409       .  A
C1399      C1400   1.404       .  A
C1400      C1401   1.401       .  A
C1400      H1411   1.084       .  S
C1401      C1402   1.405       .  A
C1401      H1412   1.083       .  S
C1402      C1403   1.404       .  A
C1403      C1404   1.412       .  A
C1403      H1413   1.084       .  S
C1404      C1405   1.407       .  A
C1405      H1414   1.084       .  S
C1406      C1407   1.407       .  A
C1406      H1415   1.085       .  S
C1407      C1408   1.406       .  A
C1408      H1416   1.084       .  S
C1417      C1418   1.398       .  A
C1417      C1422   1.403       .  A
C1417      H1433   1.084       .  S
C1418      C1419   1.403       .  A
C1418      H1434   1.083       .  S
C1419      C1429   1.402       .  A
C1419      C1420   1.411       .  A
C1420      C1426   1.411       .  A
C1420      C1421   1.412       .  A
C1421      C1423   1.413       .  A
C1421      C1422   1.410       .  A
C1422      C1430   1.400       .  A
C1423      C1432   1.407       .  A
C1423      C1424   1.403       .  A
C1424      C1425   1.400       .  A
C1424      H1435   1.084       .  S
C1425      C1426   1.404       .  A
C1425      H1436   1.083       .  S
C1426      C1427   1.405       .  A
C1427      C1428   1.409       .  A
C1427      H1437   1.084       .  S
C1428      C1429   1.409       .  A
C1429      H1438   1.084       .  S
C1430      C1431   1.407       .  A
C1430      H1439   1.084       .  S
C1431      C1432   1.405       .  A
C1432      H1440   1.084       .  S
C1441      C1442   1.402       .  A
C1441      C1446   1.404       .  A
C1441      H1457   1.084       .  S
C1442      C1443   1.405       .  A
C1442      H1458   1.083       .  S
C1443      C1453   1.407       .  A
C1443      C1444   1.411       .  A
C1444      C1450   1.411       .  A
C1444      C1445   1.412       .  A
C1445      C1447   1.410       .  A
C1445      C1446   1.413       .  A
C1446      C1454   1.408       .  A
C1447      C1456   1.397       .  A
C1447      C1448   1.402       .  A
C1448      C1449   1.396       .  A
C1448      H1459   1.084       .  S
C1449      C1450   1.402       .  A
C1449      H1460   1.084       .  S
C1450      C1451   1.399       .  A
C1451      C1452   1.408       .  A
C1451      H1461   1.084       .  S
C1452      C1453   1.410       .  A
C1453      H1462   1.084       .  S
C1454      C1455   1.406       .  A
C1454      H1463   1.084       .  S
C1455      C1456   1.405       .  A
C1456      H1464   1.085       .  S
