geometry optimzed in LAMMPS
_audit_creation_date              2020-12-01 
_audit_creation_method            'lammps2cif' 
_symmetry_space_group_name_H-M    'P1' 
_symmetry_Int_Tables_number       1 
_symmetry_cell_setting            triclinic 
loop_ 
_symmetry_equiv_pos_as_xyz 
  x,y,z 
_cell_length_a                    30.45766821 
_cell_length_b                    30.765733529073284 
_cell_length_c                    38.891297303181204 
_cell_angle_alpha                 89.85272914751465 
_cell_angle_beta                  89.97396423042876 
_cell_angle_gamma                 120.65442873203853 
loop_ 
_atom_site_label 
_atom_site_type_symbol 
_atom_site_fract_x 
_atom_site_fract_y 
_atom_site_fract_z 
_atom_site_charge 
O1          O  0.31585477  0.05526321  0.03460006    -0.72400
O2          O  0.26125259  0.44688164  0.46175153    -0.73300
O3          O  0.31399851  0.05539590  0.46267172    -0.62000
O4          O  0.25790968  0.44517644  0.03355326    -0.70400
O5          O  0.18454875  0.44404827  0.03372556    -0.69900
O6          O  0.24101491  0.05499594  0.46228601    -0.61200
O7          O  0.18834377  0.44662199  0.46182524    -0.73700
O8          O  0.24238950  0.05390381  0.03406648    -0.72500
Cu9        Cu  0.28979693  0.00071747  0.99822855     1.04600
Cu10       Cu  0.21157170  0.49985616  0.49804917     1.04300
C11         C  0.28888140  0.07408218  0.04397511     0.93800
C12         C  0.21529381  0.42799533  0.45157239     0.93000
C13         C  0.28721758  0.07427532  0.45246293     0.85100
C14         C  0.21116983  0.42481644  0.04308377     0.91400
C15         C  0.11062069  0.30536642  0.41685171     0.03700
C16         C  0.13732611  0.35474401  0.42886564    -0.12400
C17         C  0.19061459  0.38102461  0.43094731     0.01200
C18         C  0.21745837  0.35863974  0.41711046    -0.11000
C19         C  0.19024769  0.30929632  0.40313094     0.03700
C20         C  0.13689806  0.28239081  0.40493974    -0.10400
H21         H  0.11583370  0.37154125  0.43826209     0.09300
H22         H  0.25879801  0.37926766  0.41719700     0.06800
H23         H  0.11510937  0.24405425  0.39536323     0.06700
C24         C  0.39166417  0.19667321  0.41641118     0.03700
C25         C  0.36543774  0.14867470  0.43080627    -0.12400
C26         C  0.31208070  0.12152885  0.43194001     0.01200
C27         C  0.28502315  0.14285562  0.41669182    -0.11000
C28         C  0.31201430  0.19145004  0.40128435     0.03700
C29         C  0.36539831  0.21816987  0.40210967    -0.10400
H30         H  0.38729517  0.13349039  0.44224753     0.09300
H31         H  0.24368839  0.12201000  0.41682345     0.06800
H32         H  0.38720186  0.25539666  0.39058460     0.06700
O33         O  0.44434554  0.18509260  0.13093840    -0.72400
O34         O  0.05463254  0.24016827  0.20354100    -0.73300
O35         O  0.44377472  0.18758048  0.20288872    -0.62000
O36         O  0.05526437  0.24251382  0.13163533    -0.70400
O37         O  0.05555909  0.31468508  0.13055000    -0.69900
O38         O  0.44478867  0.26010978  0.20314248    -0.61200
O39         O  0.05560554  0.31267689  0.20245892    -0.73700
O40         O  0.44462621  0.25726442  0.13121954    -0.72500
Cu41       Cu  0.49947246  0.21134716  0.16726214     1.04600
Cu42       Cu  0.00018550  0.28867687  0.16682974     1.04300
C43         C  0.42492303  0.21132156  0.12126184     0.93800
C44         C  0.07466368  0.28616009  0.21282295     0.93000
C45         C  0.42465063  0.21419186  0.21283746     0.85100
C46         C  0.07502834  0.28837041  0.12127266     0.91400
C47         C  0.30444900  0.19434601  0.08083555     0.03700
C48         C  0.28766009  0.15037387  0.06164205    -0.12400
C49         C  0.31173122  0.12192355  0.06390011     0.01200
C50         C  0.35791800  0.14183359  0.08262564    -0.11000
C51         C  0.37722531  0.18814569  0.10053082     0.03700
C52         C  0.34832141  0.21192992  0.10093022    -0.10400
H53         H  0.25533517  0.13823336  0.04464187     0.09300
H54         H  0.37842374  0.12163317  0.08327746     0.06800
H55         H  0.36008109  0.24470096  0.11706380     0.06700
C56         C  0.19436451  0.30369444  0.07987560     0.03700
C57         C  0.15134383  0.28723712  0.10082915    -0.12400
C58         C  0.12264612  0.31123269  0.10034686     0.01200
C59         C  0.14203857  0.35739900  0.08208749    -0.11000
C60         C  0.18767170  0.37653635  0.06274044     0.03700
C61         C  0.21067754  0.34716579  0.05991736    -0.10400
H62         H  0.14003454  0.25522755  0.11775998     0.09300
H63         H  0.12205577  0.37810221  0.08296560     0.06800
H64         H  0.24202614  0.35852278  0.04209115     0.06700
O65         O  0.26065677  0.31446565  0.37206496    -0.72400
O66         O  0.31503925  0.26144838  0.29875965    -0.73300
O67         O  0.25671619  0.31268092  0.30031113    -0.62000
O68         O  0.31365806  0.25946948  0.37066619    -0.70400
O69         O  0.24069655  0.18617223  0.37145313    -0.69900
O70         O  0.18337772  0.23971496  0.30051429    -0.61200
O71         O  0.24159015  0.18864437  0.29965923    -0.73700
O72         O  0.18771378  0.24114521  0.37238580    -0.72500
Cu73       Cu  0.28904581  0.28954756  0.33534965     1.04600
Cu74       Cu  0.21084636  0.21141640  0.33594260     1.04300
C75         C  0.21474961  0.28701249  0.38248582     0.93800
C76         C  0.28805351  0.21537730  0.28953126     0.93000
C77         C  0.20988844  0.28582063  0.29108989     0.85100
C78         C  0.28698211  0.21356555  0.38098031     0.91400
C79         C  0.30357113  0.11047294  0.25343430     0.03700
C80         C  0.28653435  0.13769825  0.27212302    -0.12400
C81         C  0.31089319  0.19044176  0.26968592     0.01200
C82         C  0.35739451  0.21687993  0.25107340    -0.11000
C83         C  0.37676668  0.18972764  0.23354776     0.03700
C84         C  0.34774727  0.13678685  0.23351180    -0.10400
H85         H  0.25381609  0.11730716  0.28892202     0.09300
H86         H  0.37808242  0.25776264  0.25024343     0.06800
H87         H  0.35962715  0.11553730  0.21783072     0.06700
C88         C  0.19325977  0.39026003  0.25500927     0.03700
C89         C  0.20885025  0.36288594  0.27515148    -0.12400
C90         C  0.18623905  0.31042455  0.27175558     0.01200
C91         C  0.14102081  0.28377894  0.25206949    -0.09800
C92         C  0.12207128  0.31074446  0.23382494     0.03700
C93         C  0.15101706  0.36367400  0.23350537    -0.10400
H94         H  0.23948170  0.38277138  0.29345523     0.09300
H95         H  0.12109444  0.24294002  0.25090304     0.06800
H96         H  0.14041533  0.38453431  0.21632932     0.06700
C97         C  0.22156208  0.44682292  0.25594026    -0.04700
C98         C  0.27573006  0.47501438  0.25647233    -0.01900
C99         C  0.30174236  0.02791879  0.25933108     0.03100
C100        C  0.27515273  0.05412231  0.25486181    -0.04700
C101        C  0.22133441  0.02610381  0.25168793    -0.01900
C102        C  0.19467719  0.47328479  0.25562893     0.03100
C103        C  0.30553720  0.45057101  0.25256464     0.37800
C104        C  0.19300136  0.05089416  0.24298571     0.37800
C105        C  0.13968696  0.44693104  0.26039408     0.36200
C106        C  0.35568694  0.05490644  0.26792643     0.36200
N107        N  0.09588700  0.42612676  0.26420563    -0.38600
N108        N  0.39858634  0.07635106  0.27496867    -0.38600
N109        N  0.17032601  0.07047683  0.23588221    -0.38100
N110        N  0.32953306  0.43134482  0.24944477    -0.38100
C111        C  0.22262621  0.27562563  0.07915371    -0.04700
C112        C  0.27677807  0.30202802  0.07950294    -0.01900
C113        C  0.30288106  0.27546298  0.07641682     0.03100
C114        C  0.27610417  0.22219925  0.07978818    -0.04700
C115        C  0.22213957  0.19587458  0.08218160    -0.01900
C116        C  0.19569850  0.22205669  0.07849208     0.03100
C117        C  0.30638064  0.35636515  0.08444554     0.37800
C118        C  0.19331804  0.14208985  0.08970980     0.37800
C119        C  0.14092389  0.19328160  0.07282867     0.36200
C120        C  0.35711190  0.30330556  0.06854672     0.36200
N121        N  0.09730786  0.17020608  0.06823021    -0.38600
N122        N  0.40024966  0.32546901  0.06207747    -0.38600
N123        N  0.17021088  0.09927217  0.09581611    -0.38100
N124        N  0.33020659  0.39965394  0.08841813    -0.38100
C125        C  0.05442688  0.27747280  0.41671259    -0.04700
C126        C  0.02742466  0.26936945  0.44790902    -0.01900
C127        C  0.47395651  0.24375491  0.44764862     0.03100
C128        C  0.44756678  0.22486914  0.41643913    -0.04700
C129        C  0.47428466  0.23230138  0.38534292    -0.01900
C130        C  0.02779140  0.25925766  0.38537043     0.03100
C131        C  0.05447406  0.28643858  0.48036733     0.37800
C132        C  0.44663976  0.21152043  0.35345128     0.37800
C133        C  0.05528824  0.26890857  0.35307639     0.36200
C134        C  0.44602063  0.23742572  0.47936816     0.36200
N135        N  0.07718161  0.27643089  0.32735658    -0.38600
N136        N  0.42369794  0.23248812  0.50457970    -0.38600
N137        N  0.42454570  0.19484859  0.32808995    -0.38100
N138        N  0.07600404  0.30014689  0.50622252    -0.38100
O139        O  0.31585491  0.05526331  0.53460000    -0.72400
O140        O  0.26125272  0.44688166  0.96175149    -0.73300
O141        O  0.31399854  0.05539579  0.96267171    -0.62000
O142        O  0.25790975  0.44517643  0.53355320    -0.70400
O143        O  0.18454887  0.44404835  0.53372568    -0.69900
O144        O  0.24101499  0.05499593  0.96228613    -0.61200
O145        O  0.18834382  0.44662184  0.96182534    -0.73700
O146        O  0.24238960  0.05390386  0.53406647    -0.72500
Cu147      Cu  0.28979695  0.00071765  0.49822849     1.04600
Cu148      Cu  0.21157177  0.49985614  0.99804917     1.04300
C149        C  0.28888151  0.07408221  0.54397509     0.93800
C150        C  0.21529387  0.42799528  0.95157242     0.93000
C151        C  0.28721760  0.07427528  0.95246301     0.85100
C152        C  0.21116994  0.42481650  0.54308383     0.91400
C153        C  0.11062072  0.30536645  0.91685174     0.03700
C154        C  0.13732600  0.35474415  0.92886575    -0.12400
C155        C  0.19061465  0.38102461  0.93094732     0.01200
C156        C  0.21745840  0.35863975  0.91711056    -0.11000
C157        C  0.19024771  0.30929631  0.90313106     0.03700
C158        C  0.13689811  0.28239092  0.90493988    -0.10400
H159        H  0.11583443  0.37154070  0.93826184     0.09300
H160        H  0.25879797  0.37926762  0.91719710     0.06800
H161        H  0.11510920  0.24405389  0.89536325     0.06700
C162        C  0.39166415  0.19667315  0.91641116     0.03700
C163        C  0.36543773  0.14867465  0.93080638    -0.12400
C164        C  0.31208061  0.12152888  0.93194010     0.01200
C165        C  0.28502294  0.14285557  0.91669182    -0.11000
C166        C  0.31201434  0.19145003  0.90128429     0.03700
C167        C  0.36539846  0.21817004  0.90210955    -0.10400
H168        H  0.38729454  0.13349071  0.94224735     0.09300
H169        H  0.24368920  0.12201054  0.91682341     0.06800
H170        H  0.38720131  0.25539551  0.89058488     0.06700
O171        O  0.44434542  0.18509261  0.63093838    -0.72400
O172        O  0.05463245  0.24016832  0.70354094    -0.73300
O173        O  0.44377473  0.18758047  0.70288871    -0.62000
O174        O  0.05526446  0.24251383  0.63163533    -0.70400
O175        O  0.05555914  0.31468509  0.63055003    -0.69900
O176        O  0.44478857  0.26010972  0.70314261    -0.61200
O177        O  0.05560554  0.31267699  0.70245892    -0.73700
O178        O  0.44462606  0.25726441  0.63121966    -0.72500
Cu179      Cu  0.49947240  0.21134722  0.66726207     1.04600
Cu180      Cu  0.00018553  0.28867688  0.66682984     1.04300
C181        C  0.42492289  0.21132156  0.62126191     0.93800
C182        C  0.07466364  0.28616011  0.71282291     0.93000
C183        C  0.42465064  0.21419184  0.71283758     0.85100
C184        C  0.07502839  0.28837044  0.62127266     0.91400
C185        C  0.30444893  0.19434594  0.58083559     0.03700
C186        C  0.28766018  0.15037391  0.56164197    -0.12400
C187        C  0.31173132  0.12192360  0.56390005     0.01200
C188        C  0.35791807  0.14183365  0.58262560    -0.11000
C189        C  0.37722521  0.18814566  0.60053089     0.03700
C190        C  0.34832118  0.21192971  0.60093036    -0.10400
H191        H  0.25533529  0.13823346  0.54464171     0.09300
H192        H  0.37842384  0.12163325  0.58327740     0.06800
H193        H  0.36008085  0.24470090  0.61706406     0.06700
C194        C  0.19436449  0.30369442  0.57987558     0.03700
C195        C  0.15134389  0.28723727  0.60082908    -0.12400
C196        C  0.12264608  0.31123264  0.60034681     0.01200
C197        C  0.14203858  0.35739905  0.58208752    -0.11000
C198        C  0.18767176  0.37653637  0.56274048     0.03700
C199        C  0.21067750  0.34716578  0.55991733    -0.10400
H200        H  0.14003441  0.25522706  0.61776035     0.09300
H201        H  0.12205599  0.37810219  0.58296573     0.06800
H202        H  0.24202620  0.35852279  0.54209107     0.06700
O203        O  0.26065679  0.31446572  0.87206506    -0.72400
O204        O  0.31503907  0.26144842  0.79875955    -0.73300
O205        O  0.25671608  0.31268093  0.80031109    -0.62000
O206        O  0.31365813  0.25946959  0.87066622    -0.70400
O207        O  0.24069672  0.18617227  0.87145300    -0.69900
O208        O  0.18337759  0.23971501  0.80051440    -0.61200
O209        O  0.24159001  0.18864441  0.79965912    -0.73700
O210        O  0.18771388  0.24114524  0.87238592    -0.72500
Cu211      Cu  0.28904572  0.28954762  0.83534963     1.04600
Cu212      Cu  0.21084641  0.21141647  0.83594258     1.04300
C213        C  0.21474966  0.28701252  0.88248594     0.93800
C214        C  0.28805335  0.21537735  0.78953115     0.93000
C215        C  0.20988833  0.28582064  0.79108992     0.85100
C216        C  0.28698223  0.21356561  0.88098025     0.91400
C217        C  0.30357102  0.11047294  0.75343425     0.03700
C218        C  0.28653432  0.13769833  0.77212299    -0.12400
C219        C  0.31089306  0.19044180  0.76968582     0.01200
C220        C  0.35739441  0.21687996  0.75107334    -0.11000
C221        C  0.37676670  0.18972761  0.73354786     0.03700
C222        C  0.34774713  0.13678690  0.73351180    -0.10400
H223        H  0.25381604  0.11730719  0.78892212     0.09300
H224        H  0.37808227  0.25776267  0.75024330     0.06800
H225        H  0.35962723  0.11553696  0.71783043     0.06700
C226        C  0.19325961  0.39026000  0.75500943     0.03700
C227        C  0.20885032  0.36288600  0.77515164    -0.12400
C228        C  0.18623893  0.31042453  0.77175566     0.01200
C229        C  0.14102071  0.28377891  0.75206960    -0.09800
C230        C  0.12207124  0.31074444  0.73382492     0.03700
C231        C  0.15101709  0.36367383  0.73350556    -0.10400
H232        H  0.23948126  0.38277106  0.79345499     0.09300
H233        H  0.12109428  0.24293992  0.75090318     0.06800
H234        H  0.14041501  0.38453493  0.71632888     0.06700
C235        C  0.22156195  0.44682289  0.75594035    -0.04700
C236        C  0.27572991  0.47501440  0.75647232    -0.01900
C237        C  0.30174225  0.02791878  0.75933120     0.03100
C238        C  0.27515262  0.05412231  0.75486189    -0.04700
C239        C  0.22133433  0.02610376  0.75168792    -0.01900
C240        C  0.19467706  0.47328476  0.75562888     0.03100
C241        C  0.30553703  0.45057105  0.75256460     0.37800
C242        C  0.19300128  0.05089416  0.74298577     0.37800
C243        C  0.13968691  0.44693109  0.76039404     0.36200
C244        C  0.35568690  0.05490646  0.76792652     0.36200
N245        N  0.09588691  0.42612684  0.76420576    -0.38600
N246        N  0.39858632  0.07635117  0.77496862    -0.38600
N247        N  0.17032611  0.07047690  0.73588216    -0.38100
N248        N  0.32953290  0.43134487  0.74944491    -0.38100
C249        C  0.22262619  0.27562564  0.57915363    -0.04700
C250        C  0.27677800  0.30202799  0.57950292    -0.01900
C251        C  0.30288100  0.27546298  0.57641688     0.03100
C252        C  0.27610417  0.22219926  0.57978820    -0.04700
C253        C  0.22213964  0.19587463  0.58218165    -0.01900
C254        C  0.19569854  0.22205670  0.57849207     0.03100
C255        C  0.30638050  0.35636510  0.58444566     0.37800
C256        C  0.19331816  0.14208990  0.58970976     0.37800
C257        C  0.14092395  0.19328155  0.57282879     0.36200
C258        C  0.35711178  0.30330553  0.56854674     0.36200
N259        N  0.09730789  0.17020582  0.56823040    -0.38600
N260        N  0.40024952  0.32546883  0.56207756    -0.38600
N261        N  0.17021102  0.09927220  0.59581601    -0.38100
N262        N  0.33020632  0.39965382  0.58841833    -0.38100
C263        C  0.05442691  0.27747287  0.91671261    -0.04700
C264        C  0.02742469  0.26936952  0.94790900    -0.01900
C265        C  0.47395659  0.24375500  0.94764857     0.03100
C266        C  0.44756682  0.22486912  0.91643910    -0.04700
C267        C  0.47428476  0.23230144  0.88534292    -0.01900
C268        C  0.02779147  0.25925763  0.88537041     0.03100
C269        C  0.05447398  0.28643863  0.98036739     0.37800
C270        C  0.44663988  0.21152047  0.85345126     0.37800
C271        C  0.05528831  0.26890840  0.85307643     0.36200
C272        C  0.44602069  0.23742606  0.97936804     0.36200
N273        N  0.07718171  0.27643087  0.82735656    -0.38600
N274        N  0.42369797  0.23248848  0.00457955    -0.38600
N275        N  0.42454577  0.19484859  0.82809000    -0.38100
N276        N  0.07600387  0.30014685  0.00622261    -0.38100
O277        O  0.31585480  0.55526319  0.03460008    -0.72400
O278        O  0.26125263  0.94688173  0.46175150    -0.73300
O279        O  0.31399852  0.55539588  0.46267174    -0.62000
O280        O  0.25790969  0.94517638  0.03355324    -0.70400
O281        O  0.18454887  0.94404843  0.03372558    -0.69900
O282        O  0.24101485  0.55499578  0.46228600    -0.61200
O283        O  0.18834376  0.94662196  0.46182530    -0.73700
O284        O  0.24238947  0.55390371  0.03406649    -0.72500
Cu285      Cu  0.28979701  0.50071757  0.99822856     1.04600
Cu286      Cu  0.21157178  0.99985629  0.49804918     1.04300
C287        C  0.28888140  0.57408213  0.04397509     0.93800
C288        C  0.21529380  0.92799533  0.45157242     0.93000
C289        C  0.28721752  0.57427522  0.45246292     0.85100
C290        C  0.21116987  0.92481650  0.04308379     0.91400
C291        C  0.11062072  0.80536650  0.41685168     0.03700
C292        C  0.13732603  0.85474413  0.42886569    -0.12400
C293        C  0.19061461  0.88102465  0.43094731     0.01200
C294        C  0.21745845  0.85863985  0.41711045    -0.11000
C295        C  0.19024772  0.80929640  0.40313092     0.03700
C296        C  0.13689808  0.78239089  0.40493973    -0.10400
H297        H  0.11583414  0.87154092  0.43826193     0.09300
H298        H  0.25879772  0.87926761  0.41719702     0.06800
H299        H  0.11510949  0.74405449  0.39536326     0.06700
C300        C  0.39166415  0.69667312  0.41641117     0.03700
C301        C  0.36543775  0.64867450  0.43080630    -0.12400
C302        C  0.31208061  0.62152879  0.43193998     0.01200
C303        C  0.28502292  0.64285558  0.41669186    -0.11000
C304        C  0.31201434  0.69145012  0.40128438     0.03700
C305        C  0.36539831  0.71816978  0.40210965    -0.10400
H306        H  0.38729452  0.63349066  0.44224723     0.09300
H307        H  0.24368929  0.62201066  0.41682352     0.06800
H308        H  0.38720194  0.75539661  0.39058455     0.06700
O309        O  0.44434550  0.68509253  0.13093840    -0.72400
O310        O  0.05463243  0.74016833  0.20354102    -0.73300
O311        O  0.44377468  0.68758046  0.20288874    -0.62000
O312        O  0.05526441  0.74251385  0.13163534    -0.70400
O313        O  0.05555912  0.81468510  0.13054999    -0.69900
O314        O  0.44478864  0.76010974  0.20314247    -0.61200
O315        O  0.05560560  0.81267702  0.20245890    -0.73700
O316        O  0.44462615  0.75726433  0.13121955    -0.72500
Cu317      Cu  0.49947234  0.71134712  0.16726214     1.04600
Cu318      Cu  0.00018548  0.78867677  0.16682974     1.04300
C319        C  0.42492298  0.71132148  0.12126184     0.93800
C320        C  0.07466366  0.78616016  0.21282295     0.93000
C321        C  0.42465061  0.71419187  0.21283748     0.85100
C322        C  0.07502837  0.78837045  0.12127265     0.91400
C323        C  0.30444896  0.69434592  0.08083555     0.03700
C324        C  0.28766004  0.65037378  0.06164205    -0.12400
C325        C  0.31173126  0.62192352  0.06390006     0.01200
C326        C  0.35791800  0.64183362  0.08262560    -0.11000
C327        C  0.37722528  0.68814560  0.10053083     0.03700
C328        C  0.34832134  0.71192981  0.10093023    -0.10400
H329        H  0.25533509  0.63823323  0.04464191     0.09300
H330        H  0.37842408  0.62163296  0.08327743     0.06800
H331        H  0.36008102  0.74470087  0.11706380     0.06700
C332        C  0.19436451  0.80369444  0.07987559     0.03700
C333        C  0.15134392  0.78723729  0.10082907    -0.12400
C334        C  0.12264614  0.81123268  0.10034684     0.01200
C335        C  0.14203858  0.85739911  0.08208750    -0.11000
C336        C  0.18767176  0.87653641  0.06274048     0.03700
C337        C  0.21067760  0.84716587  0.05991737    -0.10400
H338        H  0.14003436  0.75522692  0.11776036     0.09300
H339        H  0.12205608  0.87810201  0.08296560     0.06800
H340        H  0.24202617  0.85852284  0.04209121     0.06700
O341        O  0.26065674  0.81446569  0.37206495    -0.72400
O342        O  0.31503926  0.76144843  0.29875964    -0.73300
O343        O  0.25671613  0.81268092  0.30031114    -0.62000
O344        O  0.31365821  0.75946966  0.37066620    -0.70400
O345        O  0.24069667  0.68617243  0.37145313    -0.69900
O346        O  0.18337770  0.73971491  0.30051428    -0.61200
O347        O  0.24159019  0.68864439  0.29965926    -0.73700
O348        O  0.18771378  0.74114522  0.37238581    -0.72500
Cu349      Cu  0.28904589  0.78954771  0.33534965     1.04600
Cu350      Cu  0.21084644  0.71141648  0.33594260     1.04300
C351        C  0.21474958  0.78701250  0.38248581     0.93800
C352        C  0.28805356  0.71537736  0.28953127     0.93000
C353        C  0.20988839  0.78582060  0.29108991     0.85100
C354        C  0.28698220  0.71356570  0.38098032     0.91400
C355        C  0.30357111  0.61047288  0.25343432     0.03700
C356        C  0.28653445  0.63769831  0.27212299    -0.12400
C357        C  0.31089315  0.69044172  0.26968592     0.01200
C358        C  0.35739456  0.71688016  0.25107334    -0.11000
C359        C  0.37676663  0.68972759  0.23354776     0.03700
C360        C  0.34774730  0.63678679  0.23351178    -0.10400
H361        H  0.25381572  0.61730693  0.28892225     0.09300
H362        H  0.37808165  0.75776138  0.25024338     0.06800
H363        H  0.35962704  0.61553746  0.21783090     0.06700
C364        C  0.19325979  0.89026004  0.25500926     0.03700
C365        C  0.20885033  0.86288599  0.27515152    -0.12400
C366        C  0.18623899  0.81042450  0.27175560     0.01200
C367        C  0.14102082  0.78377894  0.25206949    -0.09800
C368        C  0.12207128  0.81074444  0.23382493     0.03700
C369        C  0.15101710  0.86367394  0.23350543    -0.10400
H370        H  0.23948130  0.88277113  0.29345500     0.09300
H371        H  0.12109430  0.74293971  0.25090302     0.06800
H372        H  0.14041521  0.88453454  0.21632915     0.06700
C373        C  0.22156213  0.94682295  0.25594025    -0.04700
C374        C  0.27573012  0.97501443  0.25647232    -0.01900
C375        C  0.30174234  0.52791872  0.25933109     0.03100
C376        C  0.27515270  0.55412226  0.25486181    -0.04700
C377        C  0.22133438  0.52610377  0.25168793    -0.01900
C378        C  0.19467725  0.97328482  0.25562893     0.03100
C379        C  0.30553722  0.95057099  0.25256465     0.37800
C380        C  0.19300128  0.55089416  0.24298573     0.37800
C381        C  0.13968700  0.94693105  0.26039407     0.36200
C382        C  0.35568691  0.55490635  0.26792643     0.36200
N383        N  0.09588708  0.92612688  0.26420563    -0.38600
N384        N  0.39858636  0.57635116  0.27496865    -0.38600
N385        N  0.17032590  0.57047670  0.23588221    -0.38100
N386        N  0.32953294  0.93134465  0.24944478    -0.38100
C387        C  0.22262622  0.77562564  0.07915370    -0.04700
C388        C  0.27677805  0.80202800  0.07950294    -0.01900
C389        C  0.30288104  0.77546298  0.07641683     0.03100
C390        C  0.27610415  0.72219922  0.07978817    -0.04700
C391        C  0.22213956  0.69587454  0.08218160    -0.01900
C392        C  0.19569851  0.72205669  0.07849208     0.03100
C393        C  0.30638065  0.85636518  0.08444554     0.37800
C394        C  0.19331804  0.64208984  0.08970981     0.37800
C395        C  0.14092393  0.69328162  0.07282867     0.36200
C396        C  0.35711183  0.80330558  0.06854672     0.36200
N397        N  0.09730788  0.67020596  0.06823021    -0.38600
N398        N  0.40024961  0.82546887  0.06207746    -0.38600
N399        N  0.17021086  0.59927208  0.09581610    -0.38100
N400        N  0.33020661  0.89965392  0.08841814    -0.38100
C401        C  0.05442689  0.77747289  0.41671258    -0.04700
C402        C  0.02742470  0.76936955  0.44790900    -0.01900
C403        C  0.47395655  0.74375491  0.44764862     0.03100
C404        C  0.44756680  0.72486909  0.41643915    -0.04700
C405        C  0.47428470  0.73230136  0.38534294    -0.01900
C406        C  0.02779140  0.75925766  0.38537042     0.03100
C407        C  0.05447411  0.78643866  0.48036732     0.37800
C408        C  0.44663984  0.71152053  0.35345129     0.37800
C409        C  0.05528824  0.76890851  0.35307639     0.36200
C410        C  0.44602067  0.73742575  0.47936816     0.36200
N411        N  0.07718170  0.77643100  0.32735659    -0.38600
N412        N  0.42369790  0.73248798  0.50457969    -0.38600
N413        N  0.42454580  0.69484878  0.32808993    -0.38100
N414        N  0.07600401  0.80014675  0.50622255    -0.38100
O415        O  0.31585475  0.55526313  0.53460000    -0.72400
O416        O  0.26125262  0.94688155  0.96175152    -0.73300
O417        O  0.31399865  0.55539593  0.96267175    -0.62000
O418        O  0.25790981  0.94517645  0.53355317    -0.70400
O419        O  0.18454901  0.94404851  0.53372572    -0.69900
O420        O  0.24101497  0.55499582  0.96228611    -0.61200
O421        O  0.18834386  0.94662201  0.96182532    -0.73700
O422        O  0.24238945  0.55390369  0.53406649    -0.72500
Cu423      Cu  0.28979690  0.50071755  0.49822849     1.04600
Cu424      Cu  0.21157185  0.99985629  0.99804917     1.04300
C425        C  0.28888138  0.57408205  0.54397512     0.93800
C426        C  0.21529382  0.92799534  0.95157240     0.93000
C427        C  0.28721763  0.57427530  0.95246301     0.85100
C428        C  0.21117001  0.92481657  0.54308384     0.91400
C429        C  0.11062070  0.80536655  0.91685175     0.03700
C430        C  0.13732598  0.85474421  0.92886579    -0.12400
C431        C  0.19061459  0.88102471  0.93094728     0.01200
C432        C  0.21745846  0.85863989  0.91711055    -0.11000
C433        C  0.19024771  0.80929639  0.90313105     0.03700
C434        C  0.13689810  0.78239101  0.90493983    -0.10400
H435        H  0.11583433  0.87154080  0.93826197     0.09300
H436        H  0.25879751  0.87926753  0.91719714     0.06800
H437        H  0.11510926  0.74405414  0.89536322     0.06700
C438        C  0.39166419  0.69667314  0.91641113     0.03700
C439        C  0.36543773  0.64867465  0.93080640    -0.12400
C440        C  0.31208062  0.62152891  0.93194009     0.01200
C441        C  0.28502297  0.64285563  0.91669183    -0.11000
C442        C  0.31201441  0.69145012  0.90128430     0.03700
C443        C  0.36539843  0.71816989  0.90210956    -0.10400
H444        H  0.38729461  0.63349070  0.94224745     0.09300
H445        H  0.24368915  0.62201062  0.91682345     0.06800
H446        H  0.38720183  0.75539628  0.89058461     0.06700
O447        O  0.44434544  0.68509256  0.63093836    -0.72400
O448        O  0.05463241  0.74016839  0.70354092    -0.73300
O449        O  0.44377469  0.68758040  0.70288871    -0.62000
O450        O  0.05526430  0.74251387  0.63163529    -0.70400
O451        O  0.05555917  0.81468519  0.63055004    -0.69900
O452        O  0.44478862  0.76010969  0.70314264    -0.61200
O453        O  0.05560562  0.81267709  0.70245891    -0.73700
O454        O  0.44462604  0.75726434  0.63121970    -0.72500
Cu455      Cu  0.49947239  0.71134714  0.66726207     1.04600
Cu456      Cu  0.00018553  0.78867681  0.66682985     1.04300
C457        C  0.42492290  0.71132154  0.62126191     0.93800
C458        C  0.07466368  0.78616019  0.71282290     0.93000
C459        C  0.42465065  0.71419182  0.71283759     0.85100
C460        C  0.07502836  0.78837051  0.62127266     0.91400
C461        C  0.30444890  0.69434587  0.58083558     0.03700
C462        C  0.28766013  0.65037381  0.56164202    -0.12400
C463        C  0.31173128  0.62192349  0.56390007     0.01200
C464        C  0.35791808  0.64183372  0.58262558    -0.11000
C465        C  0.37722525  0.68814566  0.60053085     0.03700
C466        C  0.34832125  0.71192986  0.60093038    -0.10400
H467        H  0.25533518  0.63823327  0.54464176     0.09300
H468        H  0.37842415  0.62163311  0.58327740     0.06800
H469        H  0.36008065  0.74470031  0.61706370     0.06700
C470        C  0.19436447  0.80369440  0.57987556     0.03700
C471        C  0.15134391  0.78723732  0.60082912    -0.12400
C472        C  0.12264613  0.81123272  0.60034683     0.01200
C473        C  0.14203862  0.85739919  0.58208754    -0.11000
C474        C  0.18767183  0.87653642  0.56274048     0.03700
C475        C  0.21067743  0.84716573  0.55991733    -0.10400
H476        H  0.14003443  0.75522714  0.61776041     0.09300
H477        H  0.12205629  0.87810214  0.58296570     0.06800
H478        H  0.24202637  0.85852278  0.54209091     0.06700
O479        O  0.26065678  0.81446569  0.87206506    -0.72400
O480        O  0.31503908  0.76144843  0.79875955    -0.73300
O481        O  0.25671599  0.81268075  0.80031110    -0.62000
O482        O  0.31365826  0.75946972  0.87066622    -0.70400
O483        O  0.24069684  0.68617246  0.87145301    -0.69900
O484        O  0.18337754  0.73971484  0.80051425    -0.61200
O485        O  0.24159006  0.68864442  0.79965914    -0.73700
O486        O  0.18771389  0.74114524  0.87238593    -0.72500
Cu487      Cu  0.28904568  0.78954753  0.83534963     1.04600
Cu488      Cu  0.21084649  0.71141653  0.83594256     1.04300
C489        C  0.21474965  0.78701253  0.88248596     0.93800
C490        C  0.28805341  0.71537739  0.78953114     0.93000
C491        C  0.20988828  0.78582051  0.79108987     0.85100
C492        C  0.28698233  0.71356575  0.88098027     0.91400
C493        C  0.30357097  0.61047290  0.75343427     0.03700
C494        C  0.28653424  0.63769833  0.77212295    -0.12400
C495        C  0.31089304  0.69044177  0.76968580     0.01200
C496        C  0.35739455  0.71688017  0.75107334    -0.11000
C497        C  0.37676667  0.68972752  0.73354786     0.03700
C498        C  0.34774712  0.63678681  0.73351180    -0.10400
H499        H  0.25381602  0.61730727  0.78892200     0.09300
H500        H  0.37808167  0.75776135  0.75024334     0.06800
H501        H  0.35962706  0.61553703  0.71783062     0.06700
C502        C  0.19325966  0.89026000  0.75500943     0.03700
C503        C  0.20885042  0.86288601  0.77515168    -0.12400
C504        C  0.18623890  0.81042446  0.77175564     0.01200
C505        C  0.14102071  0.78377890  0.75206959    -0.09800
C506        C  0.12207128  0.81074445  0.73382492     0.03700
C507        C  0.15101716  0.86367386  0.73350557    -0.10400
H508        H  0.23948087  0.88277075  0.79345476     0.09300
H509        H  0.12109421  0.74293981  0.75090315     0.06800
H510        H  0.14041512  0.88453489  0.71632892     0.06700
C511        C  0.22156203  0.94682292  0.75594036    -0.04700
C512        C  0.27572999  0.97501444  0.75647231    -0.01900
C513        C  0.30174220  0.52791871  0.75933123     0.03100
C514        C  0.27515259  0.55412227  0.75486191    -0.04700
C515        C  0.22133432  0.52610375  0.75168793    -0.01900
C516        C  0.19467712  0.97328477  0.75562888     0.03100
C517        C  0.30553706  0.95057101  0.75256460     0.37800
C518        C  0.19300132  0.55089419  0.74298577     0.37800
C519        C  0.13968693  0.94693105  0.76039404     0.36200
C520        C  0.35568684  0.55490638  0.76792653     0.36200
N521        N  0.09588697  0.92612695  0.76420576    -0.38600
N522        N  0.39858628  0.57635124  0.77496860    -0.38600
N523        N  0.17032602  0.57047678  0.73588215    -0.38100
N524        N  0.32953279  0.93134469  0.74944491    -0.38100
C525        C  0.22262619  0.77562561  0.57915364    -0.04700
C526        C  0.27677805  0.80202804  0.57950293    -0.01900
C527        C  0.30288104  0.77546300  0.57641689     0.03100
C528        C  0.27610419  0.72219926  0.57978818    -0.04700
C529        C  0.22213960  0.69587456  0.58218163    -0.01900
C530        C  0.19569856  0.72205669  0.57849207     0.03100
C531        C  0.30638056  0.85636521  0.58444566     0.37800
C532        C  0.19331817  0.64208989  0.58970982     0.37800
C533        C  0.14092385  0.69328152  0.57282880     0.36200
C534        C  0.35711187  0.80330563  0.56854674     0.36200
N535        N  0.09730789  0.67020593  0.56823039    -0.38600
N536        N  0.40024961  0.82546900  0.56207757    -0.38600
N537        N  0.17021102  0.59927215  0.59581622    -0.38100
N538        N  0.33020641  0.89965395  0.58841832    -0.38100
C539        C  0.05442690  0.77747300  0.91671263    -0.04700
C540        C  0.02742464  0.76936966  0.94790901    -0.01900
C541        C  0.47395661  0.74375494  0.94764858     0.03100
C542        C  0.44756685  0.72486910  0.91643910    -0.04700
C543        C  0.47428478  0.73230138  0.88534292    -0.01900
C544        C  0.02779146  0.75925771  0.88537044     0.03100
C545        C  0.05447398  0.78643878  0.98036741     0.37800
C546        C  0.44663987  0.71152031  0.85345127     0.37800
C547        C  0.05528829  0.76890849  0.85307644     0.36200
C548        C  0.44602067  0.73742589  0.97936805     0.36200
N549        N  0.07718142  0.77643073  0.82735650    -0.38600
N550        N  0.42369790  0.73248828  0.00457954    -0.38600
N551        N  0.42454571  0.69484839  0.82809002    -0.38100
N552        N  0.07600397  0.80014701  0.00622258    -0.38100
O553        O  0.81585470  0.05526318  0.03460005    -0.72400
O554        O  0.76125259  0.44688161  0.46175151    -0.73300
O555        O  0.81399863  0.05539593  0.46267170    -0.62000
O556        O  0.75790965  0.44517644  0.03355326    -0.70400
O557        O  0.68454873  0.44404827  0.03372556    -0.69900
O558        O  0.74101497  0.05499591  0.46228602    -0.61200
O559        O  0.68834381  0.44662202  0.46182526    -0.73700
O560        O  0.74238946  0.05390384  0.03406650    -0.72500
Cu561      Cu  0.78979682  0.00071746  0.99822855     1.04600
Cu562      Cu  0.71157181  0.49985616  0.49804918     1.04300
C563        C  0.78888138  0.07408218  0.04397511     0.93800
C564        C  0.71529376  0.42799532  0.45157239     0.93000
C565        C  0.78721760  0.07427530  0.45246293     0.85100
C566        C  0.71116979  0.42481643  0.04308377     0.91400
C567        C  0.61062062  0.30536643  0.41685171     0.03700
C568        C  0.63732592  0.35474408  0.42886568    -0.12400
C569        C  0.69061453  0.38102461  0.43094730     0.01200
C570        C  0.71745809  0.35863966  0.41711046    -0.11000
C571        C  0.69024763  0.30929634  0.40313091     0.03700
C572        C  0.63689795  0.28239082  0.40493974    -0.10400
H573        H  0.61583401  0.37154094  0.43826193     0.09300
H574        H  0.75879872  0.37926807  0.41719701     0.06800
H575        H  0.61510929  0.24405427  0.39536323     0.06700
C576        C  0.89166417  0.19667322  0.41641120     0.03700
C577        C  0.86543768  0.14867470  0.43080628    -0.12400
C578        C  0.81208068  0.12152886  0.43194002     0.01200
C579        C  0.78502296  0.14285556  0.41669182    -0.11000
C580        C  0.81201433  0.19145006  0.40128431     0.03700
C581        C  0.86539832  0.21816988  0.40210964    -0.10400
H582        H  0.88729512  0.13349039  0.44224755     0.09300
H583        H  0.74368924  0.12201050  0.41682343     0.06800
H584        H  0.88720188  0.25539659  0.39058459     0.06700
O585        O  0.94434543  0.18509256  0.13093843    -0.72400
O586        O  0.55463248  0.24016829  0.20354102    -0.73300
O587        O  0.94377481  0.18758051  0.20288875    -0.62000
O588        O  0.55526438  0.24251380  0.13163533    -0.70400
O589        O  0.55555921  0.31468512  0.13055003    -0.69900
O590        O  0.94478860  0.26010974  0.20314247    -0.61200
O591        O  0.55560549  0.31267691  0.20245892    -0.73700
O592        O  0.94462620  0.25726444  0.13121952    -0.72500
Cu593      Cu  0.99947243  0.21134718  0.16726214     1.04600
Cu594      Cu  0.50018558  0.28867686  0.16682975     1.04300
C595        C  0.92492298  0.21132156  0.12126185     0.93800
C596        C  0.57466359  0.28616009  0.21282297     0.93000
C597        C  0.92465066  0.21419186  0.21283751     0.85100
C598        C  0.57502838  0.28837041  0.12127267     0.91400
C599        C  0.80444899  0.19434600  0.08083555     0.03700
C600        C  0.78765999  0.15037381  0.06164200    -0.12400
C601        C  0.81173127  0.12192358  0.06390010     0.01200
C602        C  0.85791806  0.14183363  0.08262563    -0.11000
C603        C  0.87722529  0.18814571  0.10053084     0.03700
C604        C  0.84832134  0.21192990  0.10093024    -0.10400
H605        H  0.75533574  0.13823354  0.04464216     0.09300
H606        H  0.87842380  0.12163334  0.08327744     0.06800
H607        H  0.86008099  0.24470091  0.11706379     0.06700
C608        C  0.69436451  0.30369445  0.07987561     0.03700
C609        C  0.65134382  0.28723713  0.10082912    -0.12400
C610        C  0.62264610  0.31123267  0.10034683     0.01200
C611        C  0.64203852  0.35739897  0.08208747    -0.11000
C612        C  0.68767166  0.37653633  0.06274043     0.03700
C613        C  0.71067755  0.34716582  0.05991738    -0.10400
H614        H  0.64003448  0.25522749  0.11775999     0.09300
H615        H  0.62205570  0.37810217  0.08296559     0.06800
H616        H  0.74202614  0.35852282  0.04209120     0.06700
O617        O  0.76065675  0.31446563  0.37206500    -0.72400
O618        O  0.81503912  0.26144838  0.29875964    -0.73300
O619        O  0.75671609  0.31268091  0.30031116    -0.62000
O620        O  0.81365802  0.25946949  0.37066619    -0.70400
O621        O  0.74069656  0.18617222  0.37145314    -0.69900
O622        O  0.68337766  0.23971494  0.30051430    -0.61200
O623        O  0.74159008  0.18864436  0.29965923    -0.73700
O624        O  0.68771375  0.24114523  0.37238578    -0.72500
Cu625      Cu  0.78904572  0.28954755  0.33534966     1.04600
Cu626      Cu  0.71084640  0.21141642  0.33594261     1.04300
C627        C  0.71474954  0.28701248  0.38248581     0.93800
C628        C  0.78805340  0.21537729  0.28953125     0.93000
C629        C  0.70988836  0.28582061  0.29108989     0.85100
C630        C  0.78698211  0.21356554  0.38098028     0.91400
C631        C  0.80357106  0.11047295  0.25343428     0.03700
C632        C  0.78653417  0.13769822  0.27212306    -0.12400
C633        C  0.81089311  0.19044177  0.26968589     0.01200
C634        C  0.85739444  0.21687992  0.25107340    -0.11000
C635        C  0.87676670  0.18972762  0.23354780     0.03700
C636        C  0.84774717  0.13678691  0.23351185    -0.10400
H637        H  0.75381650  0.11730748  0.28892179     0.09300
H638        H  0.87808235  0.25776262  0.25024339     0.06800
H639        H  0.85962729  0.11553695  0.21783046     0.06700
C640        C  0.69325970  0.39026002  0.25500929     0.03700
C641        C  0.70885029  0.36288595  0.27515142    -0.12400
C642        C  0.68623903  0.31042455  0.27175553     0.01200
C643        C  0.64102073  0.28377895  0.25206950    -0.09800
C644        C  0.62207119  0.31074447  0.23382496     0.03700
C645        C  0.65101696  0.36367399  0.23350541    -0.10400
H646        H  0.73948173  0.38277135  0.29345512     0.09300
H647        H  0.62109435  0.24294006  0.25090309     0.06800
H648        H  0.64041523  0.38453430  0.21632936     0.06700
C649        C  0.72156201  0.44682290  0.25594027    -0.04700
C650        C  0.77572997  0.47501438  0.25647234    -0.01900
C651        C  0.80174228  0.02791879  0.25933108     0.03100
C652        C  0.77515263  0.05412232  0.25486181    -0.04700
C653        C  0.72133437  0.02610378  0.25168793    -0.01900
C654        C  0.69467713  0.47328476  0.25562894     0.03100
C655        C  0.80553709  0.45057102  0.25256464     0.37800
C656        C  0.69300133  0.05089415  0.24298571     0.37800
C657        C  0.63968697  0.44693106  0.26039408     0.36200
C658        C  0.85568681  0.05490643  0.26792643     0.36200
N659        N  0.59588694  0.42612678  0.26420562    -0.38600
N660        N  0.89858622  0.07635107  0.27496867    -0.38600
N661        N  0.67032612  0.07047687  0.23588220    -0.38100
N662        N  0.82953293  0.43134482  0.24944477    -0.38100
C663        C  0.72262618  0.27562560  0.07915371    -0.04700
C664        C  0.77677803  0.30202801  0.07950295    -0.01900
C665        C  0.80288103  0.27546298  0.07641683     0.03100
C666        C  0.77610415  0.22219925  0.07978817    -0.04700
C667        C  0.72213957  0.19587457  0.08218160    -0.01900
C668        C  0.69569848  0.22205666  0.07849208     0.03100
C669        C  0.80638056  0.35636515  0.08444555     0.37800
C670        C  0.69331813  0.14208985  0.08970980     0.37800
C671        C  0.64092382  0.19328157  0.07282868     0.36200
C672        C  0.85711184  0.30330558  0.06854672     0.36200
N673        N  0.59730781  0.17020612  0.06823022    -0.38600
N674        N  0.90024961  0.32546905  0.06207746    -0.38600
N675        N  0.67021108  0.09927217  0.09581611    -0.38100
N676        N  0.83020645  0.39965394  0.08841813    -0.38100
C677        C  0.55442681  0.27747282  0.41671260    -0.04700
C678        C  0.52742461  0.26936949  0.44790901    -0.01900
C679        C  0.97395655  0.24375490  0.44764861     0.03100
C680        C  0.94756679  0.22486915  0.41643914    -0.04700
C681        C  0.97428470  0.23230145  0.38534292    -0.01900
C682        C  0.52779136  0.25925759  0.38537043     0.03100
C683        C  0.55447395  0.28643860  0.48036733     0.37800
C684        C  0.94663984  0.21152041  0.35345129     0.37800
C685        C  0.55528819  0.26890857  0.35307639     0.36200
C686        C  0.94602067  0.23742574  0.47936816     0.36200
N687        N  0.57718150  0.27643090  0.32735655    -0.38600
N688        N  0.92369808  0.23248813  0.50457972    -0.38600
N689        N  0.92454587  0.19484857  0.32808993    -0.38100
N690        N  0.57600391  0.30014690  0.50622253    -0.38100
O691        O  0.81585483  0.05526330  0.53460000    -0.72400
O692        O  0.76125260  0.44688168  0.96175150    -0.73300
O693        O  0.81399842  0.05539575  0.96267174    -0.62000
O694        O  0.75790967  0.44517644  0.53355320    -0.70400
O695        O  0.68454879  0.44404836  0.53372568    -0.69900
O696        O  0.74101491  0.05499598  0.96228611    -0.61200
O697        O  0.68834368  0.44662183  0.96182533    -0.73700
O698        O  0.74238950  0.05390387  0.53406647    -0.72500
Cu699      Cu  0.78979703  0.00071765  0.49822848     1.04600
Cu700      Cu  0.71157166  0.49985615  0.99804917     1.04300
C701        C  0.78888142  0.07408221  0.54397509     0.93800
C702        C  0.71529376  0.42799529  0.95157242     0.93000
C703        C  0.78721756  0.07427529  0.95246301     0.85100
C704        C  0.71116984  0.42481649  0.54308383     0.91400
C705        C  0.61062071  0.30536645  0.91685172     0.03700
C706        C  0.63732599  0.35474411  0.92886575    -0.12400
C707        C  0.69061461  0.38102462  0.93094731     0.01200
C708        C  0.71745837  0.35863977  0.91711056    -0.11000
C709        C  0.69024771  0.30929631  0.90313109     0.03700
C710        C  0.63689811  0.28239091  0.90493987    -0.10400
H711        H  0.61583427  0.37154072  0.93826190     0.09300
H712        H  0.75879802  0.37926770  0.91719709     0.06800
H713        H  0.61510919  0.24405392  0.89536325     0.06700
C714        C  0.89166418  0.19667313  0.91641116     0.03700
C715        C  0.86543782  0.14867462  0.93080638    -0.12400
C716        C  0.81208066  0.12152887  0.93194010     0.01200
C717        C  0.78502319  0.14285565  0.91669181    -0.11000
C718        C  0.81201434  0.19145001  0.90128429     0.03700
C719        C  0.86539850  0.21817003  0.90210953    -0.10400
H720        H  0.88729463  0.13349067  0.94224737     0.09300
H721        H  0.74368843  0.12201009  0.91682342     0.06800
H722        H  0.88720129  0.25539546  0.89058487     0.06700
O723        O  0.94434561  0.18509265  0.63093835    -0.72400
O724        O  0.55463253  0.24016830  0.70354091    -0.73300
O725        O  0.94377469  0.18758044  0.70288867    -0.62000
O726        O  0.55526438  0.24251382  0.63163531    -0.70400
O727        O  0.55555913  0.31468510  0.63055001    -0.69900
O728        O  0.94478867  0.26010976  0.70314263    -0.61200
O729        O  0.55560560  0.31267695  0.70245890    -0.73700
O730        O  0.94462609  0.25726438  0.63121969    -0.72500
Cu731      Cu  0.99947248  0.21134721  0.66726208     1.04600
Cu732      Cu  0.50018548  0.28867689  0.66682983     1.04300
C733        C  0.92492299  0.21132155  0.62126190     0.93800
C734        C  0.57466371  0.28616010  0.71282289     0.93000
C735        C  0.92465065  0.21419183  0.71283755     0.85100
C736        C  0.57502840  0.28837044  0.62127268     0.91400
C737        C  0.80444898  0.19434596  0.58083561     0.03700
C738        C  0.78766014  0.15037392  0.56164198    -0.12400
C739        C  0.81173131  0.12192361  0.56390004     0.01200
C740        C  0.85791805  0.14183362  0.58262559    -0.11000
C741        C  0.87722530  0.18814563  0.60053087     0.03700
C742        C  0.84832128  0.21192973  0.60093034    -0.10400
H743        H  0.75533543  0.13823353  0.54464187     0.09300
H744        H  0.87842391  0.12163302  0.58327741     0.06800
H745        H  0.86008099  0.24470093  0.61706404     0.06700
C746        C  0.69436459  0.30369447  0.57987557     0.03700
C747        C  0.65134398  0.28723725  0.60082912    -0.12400
C748        C  0.62264616  0.31123263  0.60034686     0.01200
C749        C  0.64203862  0.35739901  0.58208756    -0.11000
C750        C  0.68767174  0.37653636  0.56274045     0.03700
C751        C  0.71067742  0.34716576  0.55991737    -0.10400
H752        H  0.64003459  0.25522715  0.61776032     0.09300
H753        H  0.62205596  0.37810222  0.58296581     0.06800
H754        H  0.74202677  0.35852305  0.54209074     0.06700
O755        O  0.76065678  0.31446570  0.87206504    -0.72400
O756        O  0.81503926  0.26144843  0.79875957    -0.73300
O757        O  0.75671624  0.31268095  0.80031106    -0.62000
O758        O  0.81365807  0.25946956  0.87066624    -0.70400
O759        O  0.74069661  0.18617226  0.87145304    -0.69900
O760        O  0.68337771  0.23971504  0.80051437    -0.61200
O761        O  0.74159015  0.18864444  0.79965914    -0.73700
O762        O  0.68771381  0.24114524  0.87238590    -0.72500
Cu763      Cu  0.78904583  0.28954763  0.83534963     1.04600
Cu764      Cu  0.71084638  0.21141646  0.83594258     1.04300
C765        C  0.71474964  0.28701252  0.88248596     0.93800
C766        C  0.78805351  0.21537736  0.78953117     0.93000
C767        C  0.70988846  0.28582067  0.79108991     0.85100
C768        C  0.78698217  0.21356561  0.88098027     0.91400
C769        C  0.80357109  0.11047295  0.75343427     0.03700
C770        C  0.78653434  0.13769831  0.77212295    -0.12400
C771        C  0.81089318  0.19044181  0.76968583     0.01200
C772        C  0.85739452  0.21687996  0.75107336    -0.11000
C773        C  0.87676672  0.18972762  0.73354782     0.03700
C774        C  0.84774724  0.13678684  0.73351177    -0.10400
H775        H  0.75381610  0.11730724  0.78892197     0.09300
H776        H  0.87808240  0.25776266  0.75024336     0.06800
H777        H  0.85962712  0.11553730  0.71783071     0.06700
C778        C  0.69325969  0.39026000  0.75500941     0.03700
C779        C  0.70885030  0.36288599  0.77515167    -0.12400
C780        C  0.68623897  0.31042454  0.77175569     0.01200
C781        C  0.64102077  0.28377891  0.75206959    -0.09800
C782        C  0.62207127  0.31074443  0.73382495     0.03700
C783        C  0.65101706  0.36367389  0.73350554    -0.10400
H784        H  0.73948126  0.38277107  0.79345505     0.09300
H785        H  0.62109444  0.24293996  0.75090312     0.06800
H786        H  0.64041515  0.38453461  0.71632913     0.06700
C787        C  0.72156209  0.44682291  0.75594033    -0.04700
C788        C  0.77573005  0.47501439  0.75647232    -0.01900
C789        C  0.80174232  0.02791879  0.75933121     0.03100
C790        C  0.77515269  0.05412231  0.75486189    -0.04700
C791        C  0.72133438  0.02610378  0.75168791    -0.01900
C792        C  0.69467720  0.47328477  0.75562887     0.03100
C793        C  0.80553720  0.45057105  0.75256461     0.37800
C794        C  0.69300134  0.05089416  0.74298576     0.37800
C795        C  0.63968707  0.44693108  0.76039404     0.36200
C796        C  0.85568692  0.05490647  0.76792654     0.36200
N797        N  0.59588709  0.42612683  0.76420576    -0.38600
N798        N  0.89858638  0.07635113  0.77496861    -0.38600
N799        N  0.67032605  0.07047686  0.73588217    -0.38100
N800        N  0.82953308  0.43134487  0.74944491    -0.38100
C801        C  0.72262624  0.27562565  0.57915362    -0.04700
C802        C  0.77677807  0.30202800  0.57950291    -0.01900
C803        C  0.80288105  0.27546297  0.57641687     0.03100
C804        C  0.77610418  0.22219925  0.57978821    -0.04700
C805        C  0.72213960  0.19587461  0.58218164    -0.01900
C806        C  0.69569852  0.22205670  0.57849205     0.03100
C807        C  0.80638061  0.35636511  0.58444565     0.37800
C808        C  0.69331812  0.14208989  0.58970981     0.37800
C809        C  0.64092388  0.19328156  0.57282878     0.36200
C810        C  0.85711188  0.30330552  0.56854674     0.36200
N811        N  0.59730784  0.17020587  0.56823040    -0.38600
N812        N  0.90024961  0.32546878  0.56207758    -0.38600
N813        N  0.67021119  0.09927223  0.59581623    -0.38100
N814        N  0.83020652  0.39965382  0.58841832    -0.38100
C815        C  0.55442692  0.27747286  0.91671261    -0.04700
C816        C  0.52742469  0.26936951  0.94790900    -0.01900
C817        C  0.97395661  0.24375503  0.94764856     0.03100
C818        C  0.94756685  0.22486916  0.91643910    -0.04700
C819        C  0.97428477  0.23230150  0.88534291    -0.01900
C820        C  0.52779146  0.25925765  0.88537042     0.03100
C821        C  0.55447401  0.28643861  0.98036740     0.37800
C822        C  0.94663987  0.21152050  0.85345126     0.37800
C823        C  0.55528825  0.26890844  0.85307643     0.36200
C824        C  0.94602077  0.23742604  0.97936804     0.36200
N825        N  0.57718159  0.27643087  0.82735654    -0.38600
N826        N  0.92369814  0.23248847  0.00457959    -0.38600
N827        N  0.92454590  0.19484857  0.82808997    -0.38100
N828        N  0.57600379  0.30014685  0.00622263    -0.38100
O829        O  0.81585468  0.55526316  0.03460007    -0.72400
O830        O  0.76125265  0.94688172  0.46175150    -0.73300
O831        O  0.81399865  0.55539591  0.46267172    -0.62000
O832        O  0.75790965  0.94517638  0.03355324    -0.70400
O833        O  0.68454885  0.94404843  0.03372558    -0.69900
O834        O  0.74101495  0.55499574  0.46228601    -0.61200
O835        O  0.68834375  0.94662196  0.46182530    -0.73700
O836        O  0.74238939  0.55390374  0.03406651    -0.72500
Cu837      Cu  0.78979687  0.50071756  0.99822856     1.04600
Cu838      Cu  0.71157171  0.99985629  0.49804918     1.04300
C839        C  0.78888131  0.57408213  0.04397509     0.93800
C840        C  0.71529378  0.92799534  0.45157242     0.93000
C841        C  0.78721760  0.57427522  0.45246292     0.85100
C842        C  0.71116984  0.92481650  0.04308378     0.91400
C843        C  0.61062069  0.80536652  0.41685169     0.03700
C844        C  0.63732600  0.85474412  0.42886570    -0.12400
C845        C  0.69061459  0.88102466  0.43094730     0.01200
C846        C  0.71745826  0.85863978  0.41711044    -0.11000
C847        C  0.69024770  0.80929641  0.40313090     0.03700
C848        C  0.63689802  0.78239090  0.40493971    -0.10400
H849        H  0.61583403  0.87154099  0.43826202     0.09300
H850        H  0.75879843  0.87926799  0.41719703     0.06800
H851        H  0.61510941  0.74405445  0.39536323     0.06700
C852        C  0.89166416  0.69667313  0.41641120     0.03700
C853        C  0.86543768  0.64867457  0.43080628    -0.12400
C854        C  0.81208062  0.62152878  0.43193999     0.01200
C855        C  0.78502312  0.64285568  0.41669184    -0.11000
C856        C  0.81201437  0.69145011  0.40128433     0.03700
C857        C  0.86539837  0.71816982  0.40210963    -0.10400
H858        H  0.88729488  0.63349036  0.44224747     0.09300
H859        H  0.74368841  0.62201020  0.41682350     0.06800
H860        H  0.88720199  0.75539659  0.39058454     0.06700
O861        O  0.94434546  0.68509250  0.13093842    -0.72400
O862        O  0.55463243  0.74016833  0.20354100    -0.73300
O863        O  0.94377483  0.68758049  0.20288876    -0.62000
O864        O  0.55526433  0.74251381  0.13163533    -0.70400
O865        O  0.55555924  0.81468515  0.13055003    -0.69900
O866        O  0.94478857  0.76010969  0.20314246    -0.61200
O867        O  0.55560554  0.81267699  0.20245891    -0.73700
O868        O  0.94462615  0.75726434  0.13121954    -0.72500
Cu869      Cu  0.99947242  0.71134711  0.16726214     1.04600
Cu870      Cu  0.50018555  0.78867676  0.16682974     1.04300
C871        C  0.92492295  0.71132148  0.12126186     0.93800
C872        C  0.57466361  0.78616015  0.21282296     0.93000
C873        C  0.92465068  0.71419185  0.21283751     0.85100
C874        C  0.57502839  0.78837044  0.12127266     0.91400
C875        C  0.80444892  0.69434590  0.08083556     0.03700
C876        C  0.78765990  0.65037372  0.06164200    -0.12400
C877        C  0.81173128  0.62192354  0.06390005     0.01200
C878        C  0.85791803  0.64183366  0.08262558    -0.11000
C879        C  0.87722526  0.68814561  0.10053085     0.03700
C880        C  0.84832127  0.71192978  0.10093025    -0.10400
H881        H  0.75533567  0.63823343  0.04464225     0.09300
H882        H  0.87842415  0.62163308  0.08327740     0.06800
H883        H  0.86008092  0.74470079  0.11706381     0.06700
C884        C  0.69436452  0.80369445  0.07987560     0.03700
C885        C  0.65134389  0.78723727  0.10082905    -0.12400
C886        C  0.62264611  0.81123266  0.10034682     0.01200
C887        C  0.64203853  0.85739909  0.08208748    -0.11000
C888        C  0.68767172  0.87653640  0.06274047     0.03700
C889        C  0.71067762  0.84716591  0.05991740    -0.10400
H890        H  0.64003433  0.75522694  0.11776030     0.09300
H891        H  0.62205601  0.87810197  0.08296558     0.06800
H892        H  0.74202617  0.85852288  0.04209126     0.06700
O893        O  0.76065677  0.81446566  0.37206499    -0.72400
O894        O  0.81503914  0.76144844  0.29875962    -0.73300
O895        O  0.75671608  0.81268093  0.30031116    -0.62000
O896        O  0.81365817  0.75946966  0.37066620    -0.70400
O897        O  0.74069669  0.68617241  0.37145314    -0.69900
O898        O  0.68337769  0.73971491  0.30051428    -0.61200
O899        O  0.74159013  0.68864438  0.29965925    -0.73700
O900        O  0.68771379  0.74114523  0.37238580    -0.72500
Cu901      Cu  0.78904581  0.78954770  0.33534965     1.04600
Cu902      Cu  0.71084649  0.71141650  0.33594261     1.04300
C903        C  0.71474958  0.78701249  0.38248582     0.93800
C904        C  0.78805348  0.71537738  0.28953124     0.93000
C905        C  0.70988837  0.78582059  0.29108988     0.85100
C906        C  0.78698224  0.71356571  0.38098030     0.91400
C907        C  0.80357104  0.61047289  0.25343430     0.03700
C908        C  0.78653438  0.63769835  0.27212296    -0.12400
C909        C  0.81089312  0.69044175  0.26968590     0.01200
C910        C  0.85739462  0.71688015  0.25107338    -0.11000
C911        C  0.87676669  0.68972754  0.23354781     0.03700
C912        C  0.84774722  0.63678683  0.23351182    -0.10400
H913        H  0.75381562  0.61730696  0.28892222     0.09300
H914        H  0.87808178  0.75776138  0.25024341     0.06800
H915        H  0.85962715  0.61553709  0.21783065     0.06700
C916        C  0.69325970  0.89026003  0.25500928     0.03700
C917        C  0.70885018  0.86288593  0.27515146    -0.12400
C918        C  0.68623900  0.81042451  0.27175555     0.01200
C919        C  0.64102075  0.78377896  0.25206949    -0.09800
C920        C  0.62207119  0.81074444  0.23382497     0.03700
C921        C  0.65101697  0.86367399  0.23350539    -0.10400
H922        H  0.73948166  0.88277141  0.29345526     0.09300
H923        H  0.62109422  0.74293971  0.25090306     0.06800
H924        H  0.64041528  0.88453423  0.21632936     0.06700
C925        C  0.72156204  0.94682294  0.25594025    -0.04700
C926        C  0.77573002  0.97501443  0.25647233    -0.01900
C927        C  0.80174226  0.52791872  0.25933110     0.03100
C928        C  0.77515264  0.55412226  0.25486182    -0.04700
C929        C  0.72133438  0.52610374  0.25168793    -0.01900
C930        C  0.69467718  0.97328480  0.25562894     0.03100
C931        C  0.80553710  0.95057099  0.25256464     0.37800
C932        C  0.69300136  0.55089414  0.24298571     0.37800
C933        C  0.63968700  0.94693106  0.26039408     0.36200
C934        C  0.85568679  0.55490634  0.26792644     0.36200
N935        N  0.59588702  0.92612690  0.26420562    -0.38600
N936        N  0.89858624  0.57635116  0.27496866    -0.38600
N937        N  0.67032606  0.57047673  0.23588219    -0.38100
N938        N  0.82953281  0.93134465  0.24944478    -0.38100
C939        C  0.72262621  0.77562563  0.07915370    -0.04700
C940        C  0.77677805  0.80202799  0.07950294    -0.01900
C941        C  0.80288103  0.77546296  0.07641685     0.03100
C942        C  0.77610412  0.72219920  0.07978817    -0.04700
C943        C  0.72213951  0.69587453  0.08218160    -0.01900
C944        C  0.69569848  0.72205669  0.07849207     0.03100
C945        C  0.80638059  0.85636517  0.08444555     0.37800
C946        C  0.69331801  0.64208985  0.08970980     0.37800
C947        C  0.64092385  0.69328162  0.07282867     0.36200
C948        C  0.85711188  0.80330559  0.06854673     0.36200
N949        N  0.59730782  0.67020601  0.06823022    -0.38600
N950        N  0.90024961  0.82546893  0.06207745    -0.38600
N951        N  0.67021101  0.59927208  0.09581610    -0.38100
N952        N  0.83020647  0.89965392  0.08841814    -0.38100
C953        C  0.55442687  0.77747293  0.41671258    -0.04700
C954        C  0.52742467  0.76936961  0.44790899    -0.01900
C955        C  0.97395657  0.74375488  0.44764865     0.03100
C956        C  0.94756680  0.72486911  0.41643918    -0.04700
C957        C  0.97428468  0.73230144  0.38534295    -0.01900
C958        C  0.52779140  0.75925763  0.38537043     0.03100
C959        C  0.55447400  0.78643868  0.48036732     0.37800
C960        C  0.94663979  0.71152055  0.35345130     0.37800
C961        C  0.55528821  0.76890853  0.35307639     0.36200
C962        C  0.94602066  0.73742578  0.47936817     0.36200
N963        N  0.57718159  0.77643102  0.32735655    -0.38600
N964        N  0.92369779  0.73248799  0.50457965    -0.38600
N965        N  0.92454593  0.69484875  0.32808990    -0.38100
N966        N  0.57600388  0.80014675  0.50622256    -0.38100
O967        O  0.81585478  0.55526316  0.53460001    -0.72400
O968        O  0.76125256  0.94688156  0.96175153    -0.73300
O969        O  0.81399853  0.55539589  0.96267177    -0.62000
O970        O  0.75790971  0.94517645  0.53355317    -0.70400
O971        O  0.68454887  0.94404851  0.53372572    -0.69900
O972        O  0.74101489  0.55499587  0.96228609    -0.61200
O973        O  0.68834379  0.94662200  0.96182531    -0.73700
O974        O  0.74238945  0.55390367  0.53406648    -0.72500
Cu975      Cu  0.78979701  0.50071755  0.49822849     1.04600
Cu976      Cu  0.71157176  0.99985630  0.99804917     1.04300
C977        C  0.78888135  0.57408205  0.54397511     0.93800
C978        C  0.71529378  0.92799534  0.95157241     0.93000
C979        C  0.78721758  0.57427531  0.95246302     0.85100
C980        C  0.71116991  0.92481657  0.54308383     0.91400
C981        C  0.61062074  0.80536656  0.91685172     0.03700
C982        C  0.63732598  0.85474421  0.92886577    -0.12400
C983        C  0.69061459  0.88102471  0.93094729     0.01200
C984        C  0.71745845  0.85863990  0.91711055    -0.11000
C985        C  0.69024774  0.80929640  0.90313108     0.03700
C986        C  0.63689813  0.78239101  0.90493986    -0.10400
H987        H  0.61583434  0.87154076  0.93826193     0.09300
H988        H  0.75879771  0.87926767  0.91719711     0.06800
H989        H  0.61510930  0.74405416  0.89536327     0.06700
C990        C  0.89166418  0.69667313  0.91641111     0.03700
C991        C  0.86543780  0.64867464  0.93080637    -0.12400
C992        C  0.81208066  0.62152889  0.93194009     0.01200
C993        C  0.78502318  0.64285569  0.91669182    -0.11000
C994        C  0.81201435  0.69145009  0.90128431     0.03700
C995        C  0.86539839  0.71816988  0.90210957    -0.10400
H996        H  0.88729474  0.63349066  0.94224745     0.09300
H997        H  0.74368839  0.62201014  0.91682346     0.06800
H998        H  0.88720176  0.75539632  0.89058461     0.06700
O999        O  0.94434553  0.68509258  0.63093834    -0.72400
O1000       O  0.55463257  0.74016838  0.70354090    -0.73300
O1001       O  0.94377459  0.68758036  0.70288867    -0.62000
O1002       O  0.55526439  0.74251389  0.63163530    -0.70400
O1003       O  0.55555910  0.81468514  0.63055000    -0.69900
O1004       O  0.94478871  0.76010973  0.70314265    -0.61200
O1005       O  0.55560567  0.81267704  0.70245889    -0.73700
O1006       O  0.94462607  0.75726431  0.63121972    -0.72500
Cu1007     Cu  0.99947231  0.71134714  0.66726208     1.04600
Cu1008     Cu  0.50018547  0.78867681  0.66682984     1.04300
C1009       C  0.92492297  0.71132153  0.62126189     0.93800
C1010       C  0.57466377  0.78616018  0.71282288     0.93000
C1011       C  0.92465064  0.71419182  0.71283756     0.85100
C1012       C  0.57502838  0.78837051  0.62127266     0.91400
C1013       C  0.80444892  0.69434590  0.58083560     0.03700
C1014       C  0.78766006  0.65037382  0.56164203    -0.12400
C1015       C  0.81173122  0.62192348  0.56390008     0.01200
C1016       C  0.85791801  0.64183367  0.58262557    -0.11000
C1017       C  0.87722530  0.68814564  0.60053082     0.03700
C1018       C  0.84832133  0.71192988  0.60093035    -0.10400
H1019       H  0.75533520  0.63823332  0.54464184     0.09300
H1020       H  0.87842409  0.62163293  0.58327739     0.06800
H1021       H  0.86008079  0.74470034  0.61706367     0.06700
C1022       C  0.69436448  0.80369441  0.57987554     0.03700
C1023       C  0.65134397  0.78723732  0.60082915    -0.12400
C1024       C  0.62264618  0.81123273  0.60034687     0.01200
C1025       C  0.64203865  0.85739918  0.58208758    -0.11000
C1026       C  0.68767178  0.87653642  0.56274047     0.03700
C1027       C  0.71067742  0.84716574  0.55991730    -0.10400
H1028       H  0.64003456  0.75522722  0.61776039     0.09300
H1029       H  0.62205625  0.87810218  0.58296577     0.06800
H1030       H  0.74202631  0.85852279  0.54209091     0.06700
O1031       O  0.76065673  0.81446567  0.87206502    -0.72400
O1032       O  0.81503928  0.76144843  0.79875961    -0.73300
O1033       O  0.75671616  0.81268077  0.80031105    -0.62000
O1034       O  0.81365818  0.75946969  0.87066625    -0.70400
O1035       O  0.74069672  0.68617244  0.87145304    -0.69900
O1036       O  0.68337764  0.73971490  0.80051436    -0.61200
O1037       O  0.74159021  0.68864445  0.79965919    -0.73700
O1038       O  0.68771379  0.74114525  0.87238592    -0.72500
Cu1039     Cu  0.78904578  0.78954755  0.83534963     1.04600
Cu1040     Cu  0.71084645  0.71141652  0.83594259     1.04300
C1041       C  0.71474961  0.78701252  0.88248595     0.93800
C1042       C  0.78805360  0.71537739  0.78953123     0.93000
C1043       C  0.70988841  0.78582054  0.79108990     0.85100
C1044       C  0.78698224  0.71356573  0.88098029     0.91400
C1045       C  0.80357108  0.61047289  0.75343428     0.03700
C1046       C  0.78653446  0.63769836  0.77212291    -0.12400
C1047       C  0.81089319  0.69044176  0.76968587     0.01200
C1048       C  0.85739467  0.71688018  0.75107336    -0.11000
C1049       C  0.87676670  0.68972755  0.73354782     0.03700
C1050       C  0.84774727  0.63678676  0.73351174    -0.10400
H1051       H  0.75381567  0.61730695  0.78892223     0.09300
H1052       H  0.87808180  0.75776138  0.75024340     0.06800
H1053       H  0.85962696  0.61553739  0.71783087     0.06700
C1054       C  0.69325973  0.89026000  0.75500941     0.03700
C1055       C  0.70885039  0.86288599  0.77515171    -0.12400
C1056       C  0.68623894  0.81042445  0.77175569     0.01200
C1057       C  0.64102078  0.78377889  0.75206959    -0.09800
C1058       C  0.62207131  0.81074445  0.73382495     0.03700
C1059       C  0.65101714  0.86367387  0.73350560    -0.10400
H1060       H  0.73948087  0.88277076  0.79345481     0.09300
H1061       H  0.62109436  0.74293985  0.75090310     0.06800
H1062       H  0.64041508  0.88453486  0.71632899     0.06700
C1063       C  0.72156212  0.94682293  0.75594034    -0.04700
C1064       C  0.77573010  0.97501444  0.75647231    -0.01900
C1065       C  0.80174231  0.52791873  0.75933123     0.03100
C1066       C  0.77515268  0.55412227  0.75486189    -0.04700
C1067       C  0.72133438  0.52610378  0.75168792    -0.01900
C1068       C  0.69467723  0.97328479  0.75562888     0.03100
C1069       C  0.80553722  0.95057102  0.75256461     0.37800
C1070       C  0.69300128  0.55089419  0.74298578     0.37800
C1071       C  0.63968697  0.94693105  0.76039404     0.36200
C1072       C  0.85568690  0.55490639  0.76792654     0.36200
N1073       N  0.59588709  0.92612694  0.76420577    -0.38600
N1074       N  0.89858640  0.57635123  0.77496860    -0.38600
N1075       N  0.67032592  0.57047675  0.73588216    -0.38100
N1076       N  0.82953297  0.93134470  0.74944491    -0.38100
C1077       C  0.72262621  0.77562564  0.57915362    -0.04700
C1078       C  0.77677808  0.80202805  0.57950292    -0.01900
C1079       C  0.80288108  0.77546301  0.57641687     0.03100
C1080       C  0.77610419  0.72219927  0.57978820    -0.04700
C1081       C  0.72213959  0.69587458  0.58218165    -0.01900
C1082       C  0.69569853  0.72205670  0.57849207     0.03100
C1083       C  0.80638065  0.85636522  0.58444565     0.37800
C1084       C  0.69331808  0.64208989  0.58970977     0.37800
C1085       C  0.64092386  0.69328153  0.57282879     0.36200
C1086       C  0.85711195  0.80330563  0.56854675     0.36200
N1087       N  0.59730783  0.67020595  0.56823039    -0.38600
N1088       N  0.90024970  0.82546894  0.56207759    -0.38600
N1089       N  0.67021086  0.59927211  0.59581600    -0.38100
N1090       N  0.83020661  0.89965395  0.58841832    -0.38100
C1091       C  0.55442695  0.77747297  0.91671261    -0.04700
C1092       C  0.52742473  0.76936959  0.94790900    -0.01900
C1093       C  0.97395654  0.74375498  0.94764855     0.03100
C1094       C  0.94756681  0.72486915  0.91643908    -0.04700
C1095       C  0.97428476  0.73230143  0.88534292    -0.01900
C1096       C  0.52779150  0.75925775  0.88537041     0.03100
C1097       C  0.55447409  0.78643876  0.98036740     0.37800
C1098       C  0.94663985  0.71152033  0.85345127     0.37800
C1099       C  0.55528829  0.76890852  0.85307643     0.36200
C1100       C  0.94602059  0.73742589  0.97936804     0.36200
N1101       N  0.57718154  0.77643072  0.82735653    -0.38600
N1102       N  0.92369801  0.73248827  0.00457959    -0.38600
N1103       N  0.92454584  0.69484837  0.82808999    -0.38100
N1104       N  0.57600390  0.80014703  0.00622262    -0.38100
loop_ 
_geom_bond_atom_site_label_1 
_geom_bond_atom_site_label_2 
_geom_bond_distance 
_geom_bond_site_symmetry_2 
_ccdc_geom_bond_type 
O1           Cu9   2.025   1_554  S
O1           C11   1.276       .  A
O2         Cu423   2.014       .  S
O2           C12   1.275       .  A
O3         Cu147   2.002       .  S
O3           C13   1.282       .  A
O4         Cu285   2.011   1_554  S
O4           C14   1.283       .  A
O5         Cu148   2.024   1_554  S
O5           C14   1.276       .  A
O6         Cu286   2.013   1_545  S
O6           C13   1.275       .  A
O7          Cu10   2.000       .  S
O7           C12   1.281       .  A
O8         Cu424   2.007   1_544  S
O8           C11   1.282       .  A
Cu9         O416   2.014   1_545  S
Cu9         O141   2.002       .  S
Cu9         O280   2.011   1_546  S
Cu9        Cu424   2.369   1_545  S
Cu10        O143   2.024       .  S
Cu10        O282   2.013       .  S
Cu10        O422   2.007       .  S
Cu10       Cu423   2.369       .  S
C11          C49   1.488       .  S
C12          C17   1.482       .  S
C13          C26   1.482       .  S
C14          C60   1.487       .  S
C15         C125   1.472       .  S
C15          C16   1.390       .  A
C15          C20   1.390       .  A
C16          C17   1.399       .  A
C16          H21   1.084       .  S
C17          C18   1.417       .  A
C18          C19   1.417       .  A
C18          H22   1.083       .  S
C19          C75   1.482       .  S
C19          C20   1.399       .  A
C20          H23   1.084       .  S
C24         C128   1.465       .  S
C24          C25   1.387       .  A
C24          C29   1.387       .  A
C25          C26   1.399       .  A
C25          H30   1.084       .  S
C26          C27   1.418       .  A
C27          C28   1.418       .  A
C27          H31   1.083       .  S
C28          C78   1.481       .  S
C28          C29   1.399       .  A
C29          H32   1.084       .  S
O33         Cu41   2.023       .  S
O33          C43   1.276       .  A
O34        Cu593   2.022   1_455  S
O34          C44   1.276       .  A
O35         Cu41   2.015       .  S
O35          C45   1.283       .  A
O36        Cu593   2.014   1_455  S
O36          C46   1.283       .  A
O37         Cu42   2.023       .  S
O37          C46   1.276       .  A
O38        Cu594   2.023       .  S
O38          C45   1.276       .  A
O39         Cu42   2.013       .  S
O39          C44   1.283       .  A
O40        Cu594   2.014       .  S
O40          C43   1.283       .  A
Cu41        O586   2.022       .  S
Cu41        O588   2.014       .  S
Cu41       Cu594   2.368       .  S
Cu42        O590   2.023   1_455  S
Cu42        O592   2.014   1_455  S
Cu42       Cu593   2.368   1_455  S
C43          C51   1.489       .  S
C44          C92   1.488       .  S
C45          C83   1.490       .  S
C46          C58   1.489       .  S
C47         C114   1.495       .  S
C47          C48   1.396       .  A
C47          C52   1.398       .  A
C48          C49   1.402       .  A
C48          H53   1.083       .  S
C49          C50   1.417       .  A
C50          C51   1.418       .  A
C50          H54   1.083       .  S
C51          C52   1.403       .  A
C52          H55   1.083       .  S
C56         C111   1.499       .  S
C56          C57   1.399       .  A
C56          C61   1.398       .  A
C57          C58   1.403       .  A
C57          H62   1.083       .  S
C58          C59   1.418       .  A
C59          C60   1.417       .  A
C59          H63   1.083       .  S
C60          C61   1.402       .  A
C61          H64   1.083       .  S
O65         Cu73   2.014       .  S
O65          C75   1.275       .  A
O66         Cu73   2.025       .  S
O66          C76   1.276       .  A
O67         Cu73   2.011       .  S
O67          C77   1.283       .  A
O68         Cu73   2.002       .  S
O68          C78   1.282       .  A
O69         Cu74   2.013       .  S
O69          C78   1.275       .  A
O70         Cu74   2.023       .  S
O70          C77   1.276       .  A
O71         Cu74   2.008       .  S
O71          C76   1.283       .  A
O72         Cu74   2.001       .  S
O72          C75   1.281       .  A
Cu73        Cu74   2.369       .  S
C76          C81   1.488       .  S
C77          C90   1.487       .  S
C79         C100   1.492       .  S
C79          C80   1.395       .  A
C79          C84   1.397       .  A
C80          C81   1.401       .  A
C80          H85   1.083       .  S
C81          C82   1.419       .  A
C82          C83   1.420       .  A
C82          H86   1.082       .  S
C83          C84   1.402       .  A
C84          H87   1.083       .  S
C88          C97   1.498       .  S
C88          C89   1.398       .  A
C88          C93   1.398       .  A
C89          C90   1.402       .  A
C89          H94   1.083       .  S
C90          C91   1.417       .  A
C91          C92   1.418       .  A
C91          H95   1.082       .  S
C92          C93   1.402       .  A
C93          H96   1.082       .  S
C97          C98   1.420       .  A
C97         C102   1.419       .  A
C98         C375   1.405       .  A
C98         C103   1.452       .  S
C99         C100   1.415       .  A
C99         C374   1.405   1_545  A
C99         C106   1.453       .  S
C100        C101   1.416       .  A
C101        C378   1.406   1_545  A
C101        C104   1.453       .  S
C102        C377   1.406       .  A
C102        C105   1.453       .  S
C103        N110   1.158       .  T
C104        N109   1.158       .  T
C105        N107   1.158       .  T
C106        N108   1.157       .  T
C111        C112   1.419       .  A
C111        C116   1.418       .  A
C112        C113   1.406       .  A
C112        C117   1.452       .  S
C113        C114   1.416       .  A
C113        C120   1.453       .  S
C114        C115   1.417       .  A
C115        C116   1.407       .  A
C115        C118   1.453       .  S
C116        C119   1.453       .  S
C117        N124   1.158       .  T
C118        N123   1.158       .  T
C119        N121   1.158       .  T
C120        N122   1.157       .  T
C125        C126   1.414       .  A
C125        C130   1.414       .  A
C126        C679   1.402   1_455  A
C126        C131   1.453       .  S
C127        C128   1.409       .  A
C127        C678   1.402       .  A
C127        C134   1.453       .  S
C128        C129   1.409       .  A
C129        C682   1.402       .  A
C129        C132   1.453       .  S
C130        C681   1.402   1_455  A
C130        C133   1.453       .  S
C131        N138   1.157       .  T
C132        N137   1.158       .  T
C133        N135   1.157       .  T
C134        N136   1.158       .  T
O139       Cu147   2.025       .  S
O139        C149   1.276       .  A
O140       Cu285   2.014       .  S
O140        C150   1.275       .  A
O141        C151   1.282       .  A
O142       Cu423   2.011       .  S
O142        C152   1.283       .  A
O143        C152   1.276       .  A
O144       Cu424   2.013   1_545  S
O144        C151   1.275       .  A
O145       Cu148   2.000       .  S
O145        C150   1.281       .  A
O146       Cu286   2.007   1_545  S
O146        C149   1.282       .  A
Cu147       O278   2.014   1_545  S
Cu147       O418   2.011   1_545  S
Cu147      Cu286   2.369   1_545  S
Cu148       O420   2.013       .  S
Cu148       O284   2.007   1_556  S
Cu148      Cu285   2.369       .  S
C149        C187   1.488       .  S
C150        C155   1.482       .  S
C151        C164   1.482       .  S
C152        C198   1.487       .  S
C153        C263   1.472       .  S
C153        C154   1.390       .  A
C153        C158   1.390       .  A
C154        C155   1.399       .  A
C154        H159   1.084       .  S
C155        C156   1.417       .  A
C156        C157   1.417       .  A
C156        H160   1.083       .  S
C157        C213   1.482       .  S
C157        C158   1.399       .  A
C158        H161   1.084       .  S
C162        C266   1.465       .  S
C162        C163   1.387       .  A
C162        C167   1.387       .  A
C163        C164   1.399       .  A
C163        H168   1.084       .  S
C164        C165   1.418       .  A
C165        C166   1.418       .  A
C165        H169   1.083       .  S
C166        C216   1.481       .  S
C166        C167   1.399       .  A
C167        H170   1.084       .  S
O171       Cu179   2.023       .  S
O171        C181   1.276       .  A
O172       Cu731   2.022   1_455  S
O172        C182   1.276       .  A
O173       Cu179   2.015       .  S
O173        C183   1.283       .  A
O174       Cu731   2.014   1_455  S
O174        C184   1.283       .  A
O175       Cu180   2.023       .  S
O175        C184   1.276       .  A
O176       Cu732   2.023       .  S
O176        C183   1.276       .  A
O177       Cu180   2.013       .  S
O177        C182   1.283       .  A
O178       Cu732   2.014       .  S
O178        C181   1.283       .  A
Cu179       O724   2.022       .  S
Cu179       O726   2.014       .  S
Cu179      Cu732   2.368       .  S
Cu180       O728   2.023   1_455  S
Cu180       O730   2.014   1_455  S
Cu180      Cu731   2.368   1_455  S
C181        C189   1.489       .  S
C182        C230   1.488       .  S
C183        C221   1.490       .  S
C184        C196   1.489       .  S
C185        C252   1.495       .  S
C185        C186   1.396       .  A
C185        C190   1.398       .  A
C186        C187   1.402       .  A
C186        H191   1.083       .  S
C187        C188   1.417       .  A
C188        C189   1.418       .  A
C188        H192   1.083       .  S
C189        C190   1.403       .  A
C190        H193   1.083       .  S
C194        C249   1.499       .  S
C194        C195   1.399       .  A
C194        C199   1.398       .  A
C195        C196   1.403       .  A
C195        H200   1.083       .  S
C196        C197   1.418       .  A
C197        C198   1.417       .  A
C197        H201   1.083       .  S
C198        C199   1.402       .  A
C199        H202   1.083       .  S
O203       Cu211   2.014       .  S
O203        C213   1.275       .  A
O204       Cu211   2.025       .  S
O204        C214   1.276       .  A
O205       Cu211   2.011       .  S
O205        C215   1.283       .  A
O206       Cu211   2.002       .  S
O206        C216   1.282       .  A
O207       Cu212   2.013       .  S
O207        C216   1.275       .  A
O208       Cu212   2.023       .  S
O208        C215   1.276       .  A
O209       Cu212   2.008       .  S
O209        C214   1.283       .  A
O210       Cu212   2.001       .  S
O210        C213   1.281       .  A
Cu211      Cu212   2.369       .  S
C214        C219   1.488       .  S
C215        C228   1.487       .  S
C217        C238   1.492       .  S
C217        C218   1.395       .  A
C217        C222   1.397       .  A
C218        C219   1.401       .  A
C218        H223   1.083       .  S
C219        C220   1.419       .  A
C220        C221   1.420       .  A
C220        H224   1.082       .  S
C221        C222   1.402       .  A
C222        H225   1.083       .  S
C226        C235   1.498       .  S
C226        C227   1.398       .  A
C226        C231   1.398       .  A
C227        C228   1.402       .  A
C227        H232   1.083       .  S
C228        C229   1.417       .  A
C229        C230   1.418       .  A
C229        H233   1.082       .  S
C230        C231   1.402       .  A
C231        H234   1.082       .  S
C235        C236   1.420       .  A
C235        C240   1.419       .  A
C236        C513   1.405       .  A
C236        C241   1.452       .  S
C237        C512   1.405   1_545  A
C237        C238   1.415       .  A
C237        C244   1.453       .  S
C238        C239   1.416       .  A
C239        C516   1.406   1_545  A
C239        C242   1.453       .  S
C240        C515   1.406       .  A
C240        C243   1.453       .  S
C241        N248   1.158       .  T
C242        N247   1.158       .  T
C243        N245   1.158       .  T
C244        N246   1.157       .  T
C249        C250   1.419       .  A
C249        C254   1.418       .  A
C250        C251   1.406       .  A
C250        C255   1.452       .  S
C251        C252   1.416       .  A
C251        C258   1.453       .  S
C252        C253   1.417       .  A
C253        C254   1.407       .  A
C253        C256   1.453       .  S
C254        C257   1.453       .  S
C255        N262   1.158       .  T
C256        N261   1.158       .  T
C257        N259   1.158       .  T
C258        N260   1.157       .  T
C263        C264   1.414       .  A
C263        C268   1.414       .  A
C264        C817   1.402   1_455  A
C264        C269   1.453       .  S
C265        C816   1.402       .  A
C265        C266   1.409       .  A
C265        C272   1.453       .  S
C266        C267   1.409       .  A
C267        C820   1.402       .  A
C267        C270   1.453       .  S
C268        C819   1.402   1_455  A
C268        C271   1.453       .  S
C269        N276   1.157   1_556  T
C270        N275   1.158       .  T
C271        N273   1.157       .  T
C272        N274   1.158   1_556  T
O277       Cu285   2.025   1_554  S
O277        C287   1.276       .  A
O278        C288   1.275       .  A
O279       Cu423   2.002       .  S
O279        C289   1.282       .  A
O280        C290   1.283       .  A
O281       Cu424   2.024   1_554  S
O281        C290   1.276       .  A
O282        C289   1.275       .  A
O283       Cu286   2.000       .  S
O283        C288   1.281       .  A
O284        C287   1.282       .  A
Cu285       O417   2.002       .  S
Cu286       O419   2.024       .  S
C287        C325   1.488       .  S
C288        C293   1.482       .  S
C289        C302   1.482       .  S
C290        C336   1.487       .  S
C291        C401   1.472       .  S
C291        C292   1.390       .  A
C291        C296   1.390       .  A
C292        C293   1.399       .  A
C292        H297   1.084       .  S
C293        C294   1.417       .  A
C294        C295   1.417       .  A
C294        H298   1.083       .  S
C295        C351   1.482       .  S
C295        C296   1.399       .  A
C296        H299   1.084       .  S
C300        C404   1.465       .  S
C300        C301   1.387       .  A
C300        C305   1.387       .  A
C301        C302   1.399       .  A
C301        H306   1.084       .  S
C302        C303   1.418       .  A
C303        C304   1.418       .  A
C303        H307   1.083       .  S
C304        C354   1.481       .  S
C304        C305   1.399       .  A
C305        H308   1.084       .  S
O309       Cu317   2.023       .  S
O309        C319   1.276       .  A
O310       Cu869   2.022   1_455  S
O310        C320   1.276       .  A
O311       Cu317   2.015       .  S
O311        C321   1.283       .  A
O312       Cu869   2.014   1_455  S
O312        C322   1.283       .  A
O313       Cu318   2.023       .  S
O313        C322   1.276       .  A
O314       Cu870   2.023       .  S
O314        C321   1.276       .  A
O315       Cu318   2.013       .  S
O315        C320   1.283       .  A
O316       Cu870   2.014       .  S
O316        C319   1.283       .  A
Cu317       O862   2.022       .  S
Cu317       O864   2.014       .  S
Cu317      Cu870   2.368       .  S
Cu318       O866   2.023   1_455  S
Cu318       O868   2.014   1_455  S
Cu318      Cu869   2.368   1_455  S
C319        C327   1.489       .  S
C320        C368   1.488       .  S
C321        C359   1.490       .  S
C322        C334   1.489       .  S
C323        C390   1.495       .  S
C323        C324   1.396       .  A
C323        C328   1.398       .  A
C324        C325   1.402       .  A
C324        H329   1.083       .  S
C325        C326   1.417       .  A
C326        C327   1.418       .  A
C326        H330   1.083       .  S
C327        C328   1.403       .  A
C328        H331   1.083       .  S
C332        C387   1.499       .  S
C332        C333   1.399       .  A
C332        C337   1.398       .  A
C333        C334   1.403       .  A
C333        H338   1.083       .  S
C334        C335   1.418       .  A
C335        C336   1.417       .  A
C335        H339   1.083       .  S
C336        C337   1.402       .  A
C337        H340   1.083       .  S
O341       Cu349   2.014       .  S
O341        C351   1.275       .  A
O342       Cu349   2.025       .  S
O342        C352   1.276       .  A
O343       Cu349   2.011       .  S
O343        C353   1.283       .  A
O344       Cu349   2.002       .  S
O344        C354   1.282       .  A
O345       Cu350   2.013       .  S
O345        C354   1.275       .  A
O346       Cu350   2.023       .  S
O346        C353   1.276       .  A
O347       Cu350   2.008       .  S
O347        C352   1.283       .  A
O348       Cu350   2.001       .  S
O348        C351   1.281       .  A
Cu349      Cu350   2.369       .  S
C352        C357   1.488       .  S
C353        C366   1.487       .  S
C355        C376   1.492       .  S
C355        C356   1.395       .  A
C355        C360   1.397       .  A
C356        C357   1.401       .  A
C356        H361   1.083       .  S
C357        C358   1.419       .  A
C358        C359   1.420       .  A
C358        H362   1.082       .  S
C359        C360   1.402       .  A
C360        H363   1.083       .  S
C364        C373   1.498       .  S
C364        C365   1.398       .  A
C364        C369   1.398       .  A
C365        C366   1.402       .  A
C365        H370   1.083       .  S
C366        C367   1.417       .  A
C367        C368   1.418       .  A
C367        H371   1.082       .  S
C368        C369   1.402       .  A
C369        H372   1.082       .  S
C373        C374   1.420       .  A
C373        C378   1.419       .  A
C374        C379   1.452       .  S
C375        C376   1.415       .  A
C375        C382   1.453       .  S
C376        C377   1.416       .  A
C377        C380   1.453       .  S
C378        C381   1.453       .  S
C379        N386   1.158       .  T
C380        N385   1.158       .  T
C381        N383   1.158       .  T
C382        N384   1.157       .  T
C387        C388   1.419       .  A
C387        C392   1.418       .  A
C388        C389   1.406       .  A
C388        C393   1.452       .  S
C389        C390   1.416       .  A
C389        C396   1.453       .  S
C390        C391   1.417       .  A
C391        C392   1.407       .  A
C391        C394   1.453       .  S
C392        C395   1.453       .  S
C393        N400   1.158       .  T
C394        N399   1.158       .  T
C395        N397   1.158       .  T
C396        N398   1.157       .  T
C401        C402   1.414       .  A
C401        C406   1.414       .  A
C402        C955   1.402   1_455  A
C402        C407   1.453       .  S
C403        C954   1.402       .  A
C403        C404   1.409       .  A
C403        C410   1.453       .  S
C404        C405   1.409       .  A
C405        C958   1.402       .  A
C405        C408   1.453       .  S
C406        C957   1.402   1_455  A
C406        C409   1.453       .  S
C407        N414   1.157       .  T
C408        N413   1.158       .  T
C409        N411   1.157       .  T
C410        N412   1.158       .  T
O415       Cu423   2.025       .  S
O415        C425   1.276       .  A
O416        C426   1.275       .  A
O417        C427   1.282       .  A
O418        C428   1.283       .  A
O419        C428   1.276       .  A
O420        C427   1.275       .  A
O421       Cu424   2.000       .  S
O421        C426   1.281       .  A
O422        C425   1.282       .  A
C425        C463   1.488       .  S
C426        C431   1.482       .  S
C427        C440   1.482       .  S
C428        C474   1.487       .  S
C429        C539   1.472       .  S
C429        C430   1.390       .  A
C429        C434   1.390       .  A
C430        C431   1.399       .  A
C430        H435   1.084       .  S
C431        C432   1.417       .  A
C432        C433   1.417       .  A
C432        H436   1.083       .  S
C433        C489   1.482       .  S
C433        C434   1.399       .  A
C434        H437   1.084       .  S
C438        C542   1.465       .  S
C438        C439   1.387       .  A
C438        C443   1.387       .  A
C439        C440   1.399       .  A
C439        H444   1.084       .  S
C440        C441   1.418       .  A
C441        C442   1.418       .  A
C441        H445   1.083       .  S
C442        C492   1.481       .  S
C442        C443   1.399       .  A
C443        H446   1.084       .  S
O447       Cu455   2.023       .  S
O447        C457   1.276       .  A
O448      Cu1007   2.022   1_455  S
O448        C458   1.276       .  A
O449       Cu455   2.015       .  S
O449        C459   1.283       .  A
O450      Cu1007   2.014   1_455  S
O450        C460   1.283       .  A
O451       Cu456   2.023       .  S
O451        C460   1.276       .  A
O452      Cu1008   2.023       .  S
O452        C459   1.276       .  A
O453       Cu456   2.013       .  S
O453        C458   1.283       .  A
O454      Cu1008   2.014       .  S
O454        C457   1.283       .  A
Cu455      O1000   2.022       .  S
Cu455      O1002   2.014       .  S
Cu455     Cu1008   2.368       .  S
Cu456      O1004   2.023   1_455  S
Cu456      O1006   2.014   1_455  S
Cu456     Cu1007   2.368   1_455  S
C457        C465   1.489       .  S
C458        C506   1.488       .  S
C459        C497   1.490       .  S
C460        C472   1.489       .  S
C461        C528   1.495       .  S
C461        C462   1.396       .  A
C461        C466   1.398       .  A
C462        C463   1.402       .  A
C462        H467   1.083       .  S
C463        C464   1.417       .  A
C464        C465   1.418       .  A
C464        H468   1.083       .  S
C465        C466   1.403       .  A
C466        H469   1.083       .  S
C470        C525   1.499       .  S
C470        C471   1.399       .  A
C470        C475   1.398       .  A
C471        C472   1.403       .  A
C471        H476   1.083       .  S
C472        C473   1.418       .  A
C473        C474   1.417       .  A
C473        H477   1.083       .  S
C474        C475   1.402       .  A
C475        H478   1.083       .  S
O479       Cu487   2.014       .  S
O479        C489   1.275       .  A
O480       Cu487   2.025       .  S
O480        C490   1.276       .  A
O481       Cu487   2.011       .  S
O481        C491   1.283       .  A
O482       Cu487   2.002       .  S
O482        C492   1.282       .  A
O483       Cu488   2.013       .  S
O483        C492   1.275       .  A
O484       Cu488   2.023       .  S
O484        C491   1.276       .  A
O485       Cu488   2.008       .  S
O485        C490   1.283       .  A
O486       Cu488   2.001       .  S
O486        C489   1.281       .  A
Cu487      Cu488   2.369       .  S
C490        C495   1.488       .  S
C491        C504   1.487       .  S
C493        C514   1.492       .  S
C493        C494   1.395       .  A
C493        C498   1.397       .  A
C494        C495   1.401       .  A
C494        H499   1.083       .  S
C495        C496   1.419       .  A
C496        C497   1.420       .  A
C496        H500   1.082       .  S
C497        C498   1.402       .  A
C498        H501   1.083       .  S
C502        C511   1.498       .  S
C502        C503   1.398       .  A
C502        C507   1.398       .  A
C503        C504   1.402       .  A
C503        H508   1.083       .  S
C504        C505   1.417       .  A
C505        C506   1.418       .  A
C505        H509   1.082       .  S
C506        C507   1.402       .  A
C507        H510   1.082       .  S
C511        C512   1.420       .  A
C511        C516   1.419       .  A
C512        C517   1.452       .  S
C513        C514   1.415       .  A
C513        C520   1.453       .  S
C514        C515   1.416       .  A
C515        C518   1.453       .  S
C516        C519   1.453       .  S
C517        N524   1.158       .  T
C518        N523   1.158       .  T
C519        N521   1.158       .  T
C520        N522   1.157       .  T
C525        C526   1.419       .  A
C525        C530   1.418       .  A
C526        C527   1.406       .  A
C526        C531   1.452       .  S
C527        C528   1.416       .  A
C527        C534   1.453       .  S
C528        C529   1.417       .  A
C529        C530   1.407       .  A
C529        C532   1.453       .  S
C530        C533   1.453       .  S
C531        N538   1.158       .  T
C532        N537   1.158       .  T
C533        N535   1.158       .  T
C534        N536   1.157       .  T
C539        C540   1.414       .  A
C539        C544   1.414       .  A
C540       C1093   1.402   1_455  A
C540        C545   1.453       .  S
C541       C1092   1.402       .  A
C541        C542   1.409       .  A
C541        C548   1.453       .  S
C542        C543   1.409       .  A
C543       C1096   1.402       .  A
C543        C546   1.453       .  S
C544       C1095   1.402   1_455  A
C544        C547   1.453       .  S
C545        N552   1.157   1_556  T
C546        N551   1.158       .  T
C547        N549   1.157       .  T
C548        N550   1.158   1_556  T
O553       Cu561   2.025   1_554  S
O553        C563   1.276       .  A
O554       Cu975   2.014       .  S
O554        C564   1.275       .  A
O555       Cu699   2.002       .  S
O555        C565   1.282       .  A
O556       Cu837   2.011   1_554  S
O556        C566   1.283       .  A
O557       Cu700   2.024   1_554  S
O557        C566   1.276       .  A
O558       Cu838   2.013   1_545  S
O558        C565   1.275       .  A
O559       Cu562   2.000       .  S
O559        C564   1.281       .  A
O560       Cu976   2.007   1_544  S
O560        C563   1.282       .  A
Cu561       O968   2.014   1_545  S
Cu561       O693   2.002       .  S
Cu561       O832   2.011   1_546  S
Cu561      Cu976   2.369   1_545  S
Cu562       O695   2.024       .  S
Cu562       O834   2.013       .  S
Cu562       O974   2.007       .  S
Cu562      Cu975   2.369       .  S
C563        C601   1.488       .  S
C564        C569   1.482       .  S
C565        C578   1.482       .  S
C566        C612   1.487       .  S
C567        C677   1.472       .  S
C567        C568   1.390       .  A
C567        C572   1.390       .  A
C568        C569   1.399       .  A
C568        H573   1.084       .  S
C569        C570   1.417       .  A
C570        C571   1.417       .  A
C570        H574   1.083       .  S
C571        C627   1.482       .  S
C571        C572   1.399       .  A
C572        H575   1.084       .  S
C576        C680   1.465       .  S
C576        C577   1.387       .  A
C576        C581   1.387       .  A
C577        C578   1.399       .  A
C577        H582   1.084       .  S
C578        C579   1.418       .  A
C579        C580   1.418       .  A
C579        H583   1.083       .  S
C580        C630   1.481       .  S
C580        C581   1.399       .  A
C581        H584   1.084       .  S
O585       Cu593   2.023       .  S
O585        C595   1.276       .  A
O586        C596   1.276       .  A
O587       Cu593   2.015       .  S
O587        C597   1.283       .  A
O588        C598   1.283       .  A
O589       Cu594   2.023       .  S
O589        C598   1.276       .  A
O590        C597   1.276       .  A
O591       Cu594   2.013       .  S
O591        C596   1.283       .  A
O592        C595   1.283       .  A
C595        C603   1.489       .  S
C596        C644   1.488       .  S
C597        C635   1.490       .  S
C598        C610   1.489       .  S
C599        C666   1.495       .  S
C599        C600   1.396       .  A
C599        C604   1.398       .  A
C600        C601   1.402       .  A
C600        H605   1.083       .  S
C601        C602   1.417       .  A
C602        C603   1.418       .  A
C602        H606   1.083       .  S
C603        C604   1.403       .  A
C604        H607   1.083       .  S
C608        C663   1.499       .  S
C608        C609   1.399       .  A
C608        C613   1.398       .  A
C609        C610   1.403       .  A
C609        H614   1.083       .  S
C610        C611   1.418       .  A
C611        C612   1.417       .  A
C611        H615   1.083       .  S
C612        C613   1.402       .  A
C613        H616   1.083       .  S
O617       Cu625   2.014       .  S
O617        C627   1.275       .  A
O618       Cu625   2.025       .  S
O618        C628   1.276       .  A
O619       Cu625   2.011       .  S
O619        C629   1.283       .  A
O620       Cu625   2.002       .  S
O620        C630   1.282       .  A
O621       Cu626   2.013       .  S
O621        C630   1.275       .  A
O622       Cu626   2.023       .  S
O622        C629   1.276       .  A
O623       Cu626   2.008       .  S
O623        C628   1.283       .  A
O624       Cu626   2.001       .  S
O624        C627   1.281       .  A
Cu625      Cu626   2.369       .  S
C628        C633   1.488       .  S
C629        C642   1.487       .  S
C631        C652   1.492       .  S
C631        C632   1.395       .  A
C631        C636   1.397       .  A
C632        C633   1.401       .  A
C632        H637   1.083       .  S
C633        C634   1.419       .  A
C634        C635   1.420       .  A
C634        H638   1.082       .  S
C635        C636   1.402       .  A
C636        H639   1.083       .  S
C640        C649   1.498       .  S
C640        C641   1.398       .  A
C640        C645   1.398       .  A
C641        C642   1.402       .  A
C641        H646   1.083       .  S
C642        C643   1.417       .  A
C643        C644   1.418       .  A
C643        H647   1.082       .  S
C644        C645   1.402       .  A
C645        H648   1.082       .  S
C649        C650   1.420       .  A
C649        C654   1.419       .  A
C650        C927   1.405       .  A
C650        C655   1.452       .  S
C651        C926   1.405   1_545  A
C651        C652   1.415       .  A
C651        C658   1.453       .  S
C652        C653   1.416       .  A
C653        C930   1.406   1_545  A
C653        C656   1.453       .  S
C654        C929   1.406       .  A
C654        C657   1.453       .  S
C655        N662   1.158       .  T
C656        N661   1.158       .  T
C657        N659   1.158       .  T
C658        N660   1.157       .  T
C663        C664   1.419       .  A
C663        C668   1.418       .  A
C664        C665   1.406       .  A
C664        C669   1.452       .  S
C665        C666   1.416       .  A
C665        C672   1.453       .  S
C666        C667   1.417       .  A
C667        C668   1.407       .  A
C667        C670   1.453       .  S
C668        C671   1.453       .  S
C669        N676   1.158       .  T
C670        N675   1.158       .  T
C671        N673   1.158       .  T
C672        N674   1.157       .  T
C677        C678   1.414       .  A
C677        C682   1.414       .  A
C678        C683   1.453       .  S
C679        C680   1.409       .  A
C679        C686   1.453       .  S
C680        C681   1.409       .  A
C681        C684   1.453       .  S
C682        C685   1.453       .  S
C683        N690   1.157       .  T
C684        N689   1.158       .  T
C685        N687   1.157       .  T
C686        N688   1.158       .  T
O691       Cu699   2.025       .  S
O691        C701   1.276       .  A
O692       Cu837   2.014       .  S
O692        C702   1.275       .  A
O693        C703   1.282       .  A
O694       Cu975   2.011       .  S
O694        C704   1.283       .  A
O695        C704   1.276       .  A
O696       Cu976   2.013   1_545  S
O696        C703   1.275       .  A
O697       Cu700   2.000       .  S
O697        C702   1.281       .  A
O698       Cu838   2.007   1_545  S
O698        C701   1.282       .  A
Cu699       O830   2.014   1_545  S
Cu699       O970   2.011   1_545  S
Cu699      Cu838   2.369   1_545  S
Cu700       O972   2.013       .  S
Cu700       O836   2.007   1_556  S
Cu700      Cu837   2.369       .  S
C701        C739   1.488       .  S
C702        C707   1.482       .  S
C703        C716   1.482       .  S
C704        C750   1.487       .  S
C705        C815   1.472       .  S
C705        C706   1.390       .  A
C705        C710   1.390       .  A
C706        C707   1.399       .  A
C706        H711   1.084       .  S
C707        C708   1.417       .  A
C708        C709   1.417       .  A
C708        H712   1.083       .  S
C709        C765   1.482       .  S
C709        C710   1.399       .  A
C710        H713   1.084       .  S
C714        C818   1.465       .  S
C714        C715   1.387       .  A
C714        C719   1.387       .  A
C715        C716   1.399       .  A
C715        H720   1.084       .  S
C716        C717   1.418       .  A
C717        C718   1.418       .  A
C717        H721   1.083       .  S
C718        C768   1.481       .  S
C718        C719   1.399       .  A
C719        H722   1.084       .  S
O723       Cu731   2.023       .  S
O723        C733   1.276       .  A
O724        C734   1.276       .  A
O725       Cu731   2.015       .  S
O725        C735   1.283       .  A
O726        C736   1.283       .  A
O727       Cu732   2.023       .  S
O727        C736   1.276       .  A
O728        C735   1.276       .  A
O729       Cu732   2.013       .  S
O729        C734   1.283       .  A
O730        C733   1.283       .  A
C733        C741   1.489       .  S
C734        C782   1.488       .  S
C735        C773   1.490       .  S
C736        C748   1.489       .  S
C737        C804   1.495       .  S
C737        C738   1.396       .  A
C737        C742   1.398       .  A
C738        C739   1.402       .  A
C738        H743   1.083       .  S
C739        C740   1.417       .  A
C740        C741   1.418       .  A
C740        H744   1.083       .  S
C741        C742   1.403       .  A
C742        H745   1.083       .  S
C746        C801   1.499       .  S
C746        C747   1.399       .  A
C746        C751   1.398       .  A
C747        C748   1.403       .  A
C747        H752   1.083       .  S
C748        C749   1.418       .  A
C749        C750   1.417       .  A
C749        H753   1.083       .  S
C750        C751   1.402       .  A
C751        H754   1.083       .  S
O755       Cu763   2.014       .  S
O755        C765   1.275       .  A
O756       Cu763   2.025       .  S
O756        C766   1.276       .  A
O757       Cu763   2.011       .  S
O757        C767   1.283       .  A
O758       Cu763   2.002       .  S
O758        C768   1.282       .  A
O759       Cu764   2.013       .  S
O759        C768   1.275       .  A
O760       Cu764   2.023       .  S
O760        C767   1.276       .  A
O761       Cu764   2.008       .  S
O761        C766   1.283       .  A
O762       Cu764   2.001       .  S
O762        C765   1.281       .  A
Cu763      Cu764   2.369       .  S
C766        C771   1.488       .  S
C767        C780   1.487       .  S
C769        C790   1.492       .  S
C769        C770   1.395       .  A
C769        C774   1.397       .  A
C770        C771   1.401       .  A
C770        H775   1.083       .  S
C771        C772   1.419       .  A
C772        C773   1.420       .  A
C772        H776   1.082       .  S
C773        C774   1.402       .  A
C774        H777   1.083       .  S
C778        C787   1.498       .  S
C778        C779   1.398       .  A
C778        C783   1.398       .  A
C779        C780   1.402       .  A
C779        H784   1.083       .  S
C780        C781   1.417       .  A
C781        C782   1.418       .  A
C781        H785   1.082       .  S
C782        C783   1.402       .  A
C783        H786   1.082       .  S
C787        C788   1.420       .  A
C787        C792   1.419       .  A
C788       C1065   1.405       .  A
C788        C793   1.452       .  S
C789       C1064   1.405   1_545  A
C789        C790   1.415       .  A
C789        C796   1.453       .  S
C790        C791   1.416       .  A
C791       C1068   1.406   1_545  A
C791        C794   1.453       .  S
C792       C1067   1.406       .  A
C792        C795   1.453       .  S
C793        N800   1.158       .  T
C794        N799   1.158       .  T
C795        N797   1.158       .  T
C796        N798   1.157       .  T
C801        C802   1.419       .  A
C801        C806   1.418       .  A
C802        C803   1.406       .  A
C802        C807   1.452       .  S
C803        C804   1.416       .  A
C803        C810   1.453       .  S
C804        C805   1.417       .  A
C805        C806   1.407       .  A
C805        C808   1.453       .  S
C806        C809   1.453       .  S
C807        N814   1.158       .  T
C808        N813   1.158       .  T
C809        N811   1.158       .  T
C810        N812   1.157       .  T
C815        C816   1.414       .  A
C815        C820   1.414       .  A
C816        C821   1.453       .  S
C817        C818   1.409       .  A
C817        C824   1.453       .  S
C818        C819   1.409       .  A
C819        C822   1.453       .  S
C820        C823   1.453       .  S
C821        N828   1.157   1_556  T
C822        N827   1.158       .  T
C823        N825   1.157       .  T
C824        N826   1.158   1_556  T
O829       Cu837   2.025   1_554  S
O829        C839   1.276       .  A
O830        C840   1.275       .  A
O831       Cu975   2.002       .  S
O831        C841   1.282       .  A
O832        C842   1.283       .  A
O833       Cu976   2.024   1_554  S
O833        C842   1.276       .  A
O834        C841   1.275       .  A
O835       Cu838   2.000       .  S
O835        C840   1.281       .  A
O836        C839   1.282       .  A
Cu837       O969   2.002       .  S
Cu838       O971   2.024       .  S
C839        C877   1.488       .  S
C840        C845   1.482       .  S
C841        C854   1.482       .  S
C842        C888   1.487       .  S
C843        C953   1.472       .  S
C843        C844   1.390       .  A
C843        C848   1.390       .  A
C844        C845   1.399       .  A
C844        H849   1.084       .  S
C845        C846   1.417       .  A
C846        C847   1.417       .  A
C846        H850   1.083       .  S
C847        C903   1.482       .  S
C847        C848   1.399       .  A
C848        H851   1.084       .  S
C852        C956   1.465       .  S
C852        C853   1.387       .  A
C852        C857   1.387       .  A
C853        C854   1.399       .  A
C853        H858   1.084       .  S
C854        C855   1.418       .  A
C855        C856   1.418       .  A
C855        H859   1.083       .  S
C856        C906   1.481       .  S
C856        C857   1.399       .  A
C857        H860   1.084       .  S
O861       Cu869   2.023       .  S
O861        C871   1.276       .  A
O862        C872   1.276       .  A
O863       Cu869   2.015       .  S
O863        C873   1.283       .  A
O864        C874   1.283       .  A
O865       Cu870   2.023       .  S
O865        C874   1.276       .  A
O866        C873   1.276       .  A
O867       Cu870   2.013       .  S
O867        C872   1.283       .  A
O868        C871   1.283       .  A
C871        C879   1.489       .  S
C872        C920   1.488       .  S
C873        C911   1.490       .  S
C874        C886   1.489       .  S
C875        C942   1.495       .  S
C875        C876   1.396       .  A
C875        C880   1.398       .  A
C876        C877   1.402       .  A
C876        H881   1.083       .  S
C877        C878   1.417       .  A
C878        C879   1.418       .  A
C878        H882   1.083       .  S
C879        C880   1.403       .  A
C880        H883   1.083       .  S
C884        C939   1.499       .  S
C884        C885   1.399       .  A
C884        C889   1.398       .  A
C885        C886   1.403       .  A
C885        H890   1.083       .  S
C886        C887   1.418       .  A
C887        C888   1.417       .  A
C887        H891   1.083       .  S
C888        C889   1.402       .  A
C889        H892   1.083       .  S
O893       Cu901   2.014       .  S
O893        C903   1.275       .  A
O894       Cu901   2.025       .  S
O894        C904   1.276       .  A
O895       Cu901   2.011       .  S
O895        C905   1.283       .  A
O896       Cu901   2.002       .  S
O896        C906   1.282       .  A
O897       Cu902   2.013       .  S
O897        C906   1.275       .  A
O898       Cu902   2.023       .  S
O898        C905   1.276       .  A
O899       Cu902   2.008       .  S
O899        C904   1.283       .  A
O900       Cu902   2.001       .  S
O900        C903   1.281       .  A
Cu901      Cu902   2.369       .  S
C904        C909   1.488       .  S
C905        C918   1.487       .  S
C907        C928   1.492       .  S
C907        C908   1.395       .  A
C907        C912   1.397       .  A
C908        C909   1.401       .  A
C908        H913   1.083       .  S
C909        C910   1.419       .  A
C910        C911   1.420       .  A
C910        H914   1.082       .  S
C911        C912   1.402       .  A
C912        H915   1.083       .  S
C916        C925   1.498       .  S
C916        C917   1.398       .  A
C916        C921   1.398       .  A
C917        C918   1.402       .  A
C917        H922   1.083       .  S
C918        C919   1.417       .  A
C919        C920   1.418       .  A
C919        H923   1.082       .  S
C920        C921   1.402       .  A
C921        H924   1.082       .  S
C925        C926   1.420       .  A
C925        C930   1.419       .  A
C926        C931   1.452       .  S
C927        C928   1.415       .  A
C927        C934   1.453       .  S
C928        C929   1.416       .  A
C929        C932   1.453       .  S
C930        C933   1.453       .  S
C931        N938   1.158       .  T
C932        N937   1.158       .  T
C933        N935   1.158       .  T
C934        N936   1.157       .  T
C939        C940   1.419       .  A
C939        C944   1.418       .  A
C940        C941   1.406       .  A
C940        C945   1.452       .  S
C941        C942   1.416       .  A
C941        C948   1.453       .  S
C942        C943   1.417       .  A
C943        C944   1.407       .  A
C943        C946   1.453       .  S
C944        C947   1.453       .  S
C945        N952   1.158       .  T
C946        N951   1.158       .  T
C947        N949   1.158       .  T
C948        N950   1.157       .  T
C953        C954   1.414       .  A
C953        C958   1.414       .  A
C954        C959   1.453       .  S
C955        C956   1.409       .  A
C955        C962   1.453       .  S
C956        C957   1.409       .  A
C957        C960   1.453       .  S
C958        C961   1.453       .  S
C959        N966   1.157       .  T
C960        N965   1.158       .  T
C961        N963   1.157       .  T
C962        N964   1.158       .  T
O967       Cu975   2.025       .  S
O967        C977   1.276       .  A
O968        C978   1.275       .  A
O969        C979   1.282       .  A
O970        C980   1.283       .  A
O971        C980   1.276       .  A
O972        C979   1.275       .  A
O973       Cu976   2.000       .  S
O973        C978   1.281       .  A
O974        C977   1.282       .  A
C977       C1015   1.488       .  S
C978        C983   1.482       .  S
C979        C992   1.482       .  S
C980       C1026   1.487       .  S
C981       C1091   1.472       .  S
C981        C982   1.390       .  A
C981        C986   1.390       .  A
C982        C983   1.399       .  A
C982        H987   1.084       .  S
C983        C984   1.417       .  A
C984        C985   1.417       .  A
C984        H988   1.083       .  S
C985       C1041   1.482       .  S
C985        C986   1.399       .  A
C986        H989   1.084       .  S
C990       C1094   1.465       .  S
C990        C991   1.387       .  A
C990        C995   1.387       .  A
C991        C992   1.399       .  A
C991        H996   1.084       .  S
C992        C993   1.418       .  A
C993        C994   1.418       .  A
C993        H997   1.083       .  S
C994       C1044   1.481       .  S
C994        C995   1.399       .  A
C995        H998   1.084       .  S
O999      Cu1007   2.023       .  S
O999       C1009   1.276       .  A
O1000      C1010   1.276       .  A
O1001     Cu1007   2.015       .  S
O1001      C1011   1.283       .  A
O1002      C1012   1.283       .  A
O1003     Cu1008   2.023       .  S
O1003      C1012   1.276       .  A
O1004      C1011   1.276       .  A
O1005     Cu1008   2.013       .  S
O1005      C1010   1.283       .  A
O1006      C1009   1.283       .  A
C1009      C1017   1.489       .  S
C1010      C1058   1.488       .  S
C1011      C1049   1.490       .  S
C1012      C1024   1.489       .  S
C1013      C1080   1.495       .  S
C1013      C1014   1.396       .  A
C1013      C1018   1.398       .  A
C1014      C1015   1.402       .  A
C1014      H1019   1.083       .  S
C1015      C1016   1.417       .  A
C1016      C1017   1.418       .  A
C1016      H1020   1.083       .  S
C1017      C1018   1.403       .  A
C1018      H1021   1.083       .  S
C1022      C1077   1.499       .  S
C1022      C1023   1.399       .  A
C1022      C1027   1.398       .  A
C1023      C1024   1.403       .  A
C1023      H1028   1.083       .  S
C1024      C1025   1.418       .  A
C1025      C1026   1.417       .  A
C1025      H1029   1.083       .  S
C1026      C1027   1.402       .  A
C1027      H1030   1.083       .  S
O1031     Cu1039   2.014       .  S
O1031      C1041   1.275       .  A
O1032     Cu1039   2.025       .  S
O1032      C1042   1.276       .  A
O1033     Cu1039   2.011       .  S
O1033      C1043   1.283       .  A
O1034     Cu1039   2.002       .  S
O1034      C1044   1.282       .  A
O1035     Cu1040   2.013       .  S
O1035      C1044   1.275       .  A
O1036     Cu1040   2.023       .  S
O1036      C1043   1.276       .  A
O1037     Cu1040   2.008       .  S
O1037      C1042   1.283       .  A
O1038     Cu1040   2.001       .  S
O1038      C1041   1.281       .  A
Cu1039    Cu1040   2.369       .  S
C1042      C1047   1.488       .  S
C1043      C1056   1.487       .  S
C1045      C1066   1.492       .  S
C1045      C1046   1.395       .  A
C1045      C1050   1.397       .  A
C1046      C1047   1.401       .  A
C1046      H1051   1.083       .  S
C1047      C1048   1.419       .  A
C1048      C1049   1.420       .  A
C1048      H1052   1.082       .  S
C1049      C1050   1.402       .  A
C1050      H1053   1.083       .  S
C1054      C1063   1.498       .  S
C1054      C1055   1.398       .  A
C1054      C1059   1.398       .  A
C1055      C1056   1.402       .  A
C1055      H1060   1.083       .  S
C1056      C1057   1.417       .  A
C1057      C1058   1.418       .  A
C1057      H1061   1.082       .  S
C1058      C1059   1.402       .  A
C1059      H1062   1.082       .  S
C1063      C1064   1.420       .  A
C1063      C1068   1.419       .  A
C1064      C1069   1.452       .  S
C1065      C1066   1.415       .  A
C1065      C1072   1.453       .  S
C1066      C1067   1.416       .  A
C1067      C1070   1.453       .  S
C1068      C1071   1.453       .  S
C1069      N1076   1.158       .  T
C1070      N1075   1.158       .  T
C1071      N1073   1.158       .  T
C1072      N1074   1.157       .  T
C1077      C1078   1.419       .  A
C1077      C1082   1.418       .  A
C1078      C1079   1.406       .  A
C1078      C1083   1.452       .  S
C1079      C1080   1.416       .  A
C1079      C1086   1.453       .  S
C1080      C1081   1.417       .  A
C1081      C1082   1.407       .  A
C1081      C1084   1.453       .  S
C1082      C1085   1.453       .  S
C1083      N1090   1.158       .  T
C1084      N1089   1.158       .  T
C1085      N1087   1.158       .  T
C1086      N1088   1.157       .  T
C1091      C1092   1.414       .  A
C1091      C1096   1.414       .  A
C1092      C1097   1.453       .  S
C1093      C1094   1.409       .  A
C1093      C1100   1.453       .  S
C1094      C1095   1.409       .  A
C1095      C1098   1.453       .  S
C1096      C1099   1.453       .  S
C1097      N1104   1.157   1_556  T
C1098      N1103   1.158       .  T
C1099      N1101   1.157       .  T
C1100      N1102   1.158   1_556  T
