geometry optimzed in LAMMPS
_audit_creation_date              2020-11-30 
_audit_creation_method            'lammps2cif' 
_symmetry_space_group_name_H-M    'P1' 
_symmetry_Int_Tables_number       1 
_symmetry_cell_setting            triclinic 
loop_ 
_symmetry_equiv_pos_as_xyz 
  x,y,z 
_cell_length_a                    43.54208465 
_cell_length_b                    43.63013412041778 
_cell_length_c                    65.21633019589014 
_cell_angle_alpha                 89.99449064717379 
_cell_angle_beta                  90.04018615255917 
_cell_angle_gamma                 119.95873912833873 
loop_ 
_atom_site_label 
_atom_site_type_symbol 
_atom_site_fract_x 
_atom_site_fract_y 
_atom_site_fract_z 
_atom_site_charge 
O1          O  0.02855235  0.47306957  0.25140034    -0.70200
O2          O  0.03147631  0.06135753  0.24935130    -0.70500
O3          O  0.03005095  0.01861553  0.27940349    -0.70300
O4          O  0.03205917  0.01650446  0.22122998    -0.70300
O5          O  0.47151998  0.48670735  0.22122860    -0.70300
O6          O  0.47157646  0.48944557  0.27937549    -0.70300
O7          O  0.47422789  0.03317297  0.24905719    -0.70200
O8          O  0.47133173  0.44468219  0.25126646    -0.70400
V9          V  0.02994059  0.01705915  0.25030591     1.35200
V10         V  0.47263475  0.48875189  0.25030735     1.35200
C11         C  0.50000416  0.44400382  0.25180346     0.79000
C12         C  0.50306405  0.06233315  0.24901600     0.79100
C13         C  0.00092326  0.00391250  0.28897927     0.78900
C14         C  0.00363527  0.00204845  0.21094024     0.78900
O15         O  0.03085155  0.22466569  0.25119703    -0.70200
O16         O  0.02926569  0.31089712  0.25138485    -0.70500
O17         O  0.02949734  0.26758044  0.28037724    -0.70300
O18         O  0.03068327  0.26814606  0.22213598    -0.70300
O19         O  0.47356852  0.23953398  0.22182026    -0.70300
O20         O  0.47235217  0.23763389  0.27998727    -0.70300
O21         O  0.47215366  0.28177219  0.25139680    -0.70200
O22         O  0.47379008  0.19562764  0.25043266    -0.70400
V23         V  0.02897060  0.26726556  0.25126707     1.35200
V24         V  0.47408307  0.23923053  0.25090887     1.35200
C25         C  0.00236688  0.19520061  0.25067046     0.79000
C26         C  0.00030119  0.31106360  0.25156780     0.79100
C27         C  0.00055243  0.25245946  0.29012974     0.78900
C28         C  0.00212280  0.25359555  0.21196695     0.78900
O29         O  0.27771042  0.47278591  0.25002752    -0.70200
O30         O  0.28225370  0.06209845  0.24949774    -0.70500
O31         O  0.28210578  0.01905382  0.27880259    -0.70300
O32         O  0.28358069  0.01891024  0.22054136    -0.70300
O33         O  0.21970733  0.48669353  0.22049099    -0.70300
O34         O  0.22008922  0.48726909  0.27862307    -0.70300
O35         O  0.22477167  0.03286839  0.24918947    -0.70200
O36         O  0.22026883  0.44379000  0.24963957    -0.70400
V37         V  0.28176664  0.01836631  0.24965989     1.35200
V38         V  0.22104740  0.48772735  0.24955609     1.35200
C39         C  0.24913547  0.44339886  0.24984595     0.79000
C40         C  0.25332757  0.06231382  0.24945347     0.79100
C41         C  0.25298238  0.00381408  0.28837253     0.78900
C42         C  0.25499951  0.00401083  0.21040006     0.78900
O43         O  0.28059502  0.22408860  0.25232568    -0.70200
O44         O  0.27961855  0.31062609  0.25003859    -0.70500
O45         O  0.28010344  0.26927595  0.28028329    -0.70300
O46         O  0.28037112  0.26575730  0.22212791    -0.70300
O47         O  0.22297485  0.23913040  0.22200594    -0.70300
O48         O  0.22260458  0.23713002  0.28020820    -0.70300
O49         O  0.22224050  0.28150802  0.25160348    -0.70200
O50         O  0.22320945  0.19502274  0.25048014    -0.70400
V51         V  0.27908547  0.26687309  0.25120686     1.35200
V52         V  0.22384549  0.23879842  0.25109459     1.35200
C53         C  0.25203553  0.19468529  0.25134641     0.79000
C54         C  0.25071881  0.31092047  0.25064415     0.79100
C55         C  0.25133857  0.25323537  0.29010731     0.78900
C56         C  0.25171762  0.25217492  0.21206771     0.78900
O57         O  0.48295691  0.47098854  0.44550393    -0.70200
O58         O  0.48521768  0.47314084  0.38739526    -0.70500
O59         O  0.02722527  0.47106189  0.41675877    -0.70300
O60         O  0.44103288  0.47288926  0.41595881    -0.70300
O61         O  0.46813232  0.02821724  0.41675963    -0.70300
O62         O  0.05466475  0.02688204  0.41712629    -0.70300
O63         O  0.01236597  0.02871235  0.38787379    -0.70200
O64         O  0.01082261  0.02631634  0.44596571    -0.70400
V65         V  0.48471474  0.47318839  0.41644654     1.35200
V66         V  0.01085502  0.02636165  0.41692267     1.35200
C67         C  0.99601977  0.99724453  0.45551676     0.79000
C68         C  0.99798011  0.00043133  0.37753587     0.79100
C69         C  0.05487932  0.99801744  0.41680236     0.78900
C70         C  0.43872575  0.99965376  0.41614188     0.78900
O71         O  0.02857741  0.22179522  0.41604459    -0.70200
O72         O  0.44146976  0.22121167  0.41873698    -0.70500
O73         O  0.48352619  0.22257935  0.38839976    -0.70300
O74         O  0.48661620  0.22037193  0.44649769    -0.70300
O75         O  0.01256723  0.27774402  0.44722146    -0.70300
O76         O  0.01468099  0.27998065  0.38903096    -0.70300
O77         O  0.46983468  0.27853042  0.41781478    -0.70200
O78         O  0.05720295  0.27899041  0.41840798    -0.70400
V79         V  0.48559503  0.22259501  0.41744942     1.35200
V80         V  0.01303745  0.27777257  0.41812282     1.35200
C81         C  0.05783410  0.25040272  0.41701923     0.79000
C82         C  0.44064812  0.24975111  0.41840426     0.79100
C83         C  0.99906494  0.25163045  0.37878189     0.78900
C84         C  0.99976509  0.24872432  0.45679677     0.78900
O85         O  0.26076729  0.02554273  0.44551332    -0.70200
O86         O  0.26130129  0.02869966  0.38736238    -0.70500
O87         O  0.21708272  0.02668076  0.41678432    -0.70300
O88         O  0.30464323  0.02761915  0.41617672    -0.70300
O89         O  0.27872697  0.47315629  0.41526447    -0.70300
O90         O  0.19092469  0.47166602  0.41626714    -0.70300
O91         O  0.23446089  0.47328615  0.38673572    -0.70200
O92         O  0.23515588  0.47161316  0.44487698    -0.70400
V93         V  0.26032502  0.02601527  0.41643469     1.35200
V94         V  0.23538282  0.47354895  0.41579417     1.35200
C95         C  0.24697631  0.99637716  0.45499194     0.79000
C96         C  0.24743604  0.00054175  0.37689269     0.79100
C97         C  0.18790457  0.99788609  0.41637290     0.78900
C98         C  0.30550325  0.99911293  0.41549466     0.78900
O99         O  0.26133190  0.27568427  0.44726428    -0.70200
O100        O  0.26456364  0.27894265  0.38909603    -0.70500
O101        O  0.21968268  0.27767699  0.41766664    -0.70300
O102        O  0.30632117  0.27719009  0.41874273    -0.70300
O103        O  0.27763496  0.21989078  0.41759855    -0.70300
O104        O  0.19071748  0.22036524  0.41674519    -0.70300
O105        O  0.23557961  0.22162915  0.38813034    -0.70200
O106        O  0.23275633  0.21832019  0.44625504    -0.70400
V107        V  0.26241560  0.27625590  0.41818261     1.35200
V108        V  0.23469674  0.22114453  0.41719786     1.35200
C109        C  0.24661320  0.24646557  0.45671245     0.79000
C110        C  0.25061742  0.25077098  0.37862731     0.79100
C111        C  0.19032839  0.24916227  0.41702162     0.78900
C112        C  0.30692194  0.24854817  0.41831376     0.78900
O113        O  0.46903291  0.48358711  0.05442595    -0.70200
O114        O  0.47046183  0.48126761  0.11260038    -0.70500
O115        O  0.47451070  0.02818935  0.08414661    -0.70300
O116        O  0.47000194  0.43895399  0.08250525    -0.70300
O117        O  0.02741404  0.46779671  0.08272882    -0.70300
O118        O  0.03194393  0.05698801  0.08314056    -0.70300
O119        O  0.03269627  0.01337706  0.11192155    -0.70200
O120        O  0.03151698  0.01354556  0.05371404    -0.70400
V121        V  0.47087268  0.48291898  0.08350194     1.35200
V122        V  0.03097179  0.01292476  0.08282790     1.35200
C123        C  0.00255612  0.99997337  0.04396015     0.79000
C124        C  0.00416540  0.99833373  0.12206748     0.79100
C125        C  0.00315472  0.05749815  0.08394021     0.78900
C126        C  0.99880694  0.43848119  0.08228227     0.78900
O127        O  0.02943232  0.26065906  0.05446428    -0.70200
O128        O  0.03065292  0.26484998  0.11268400    -0.70500
O129        O  0.03041916  0.21946491  0.08474334    -0.70300
O130        O  0.02955808  0.30600323  0.08232414    -0.70300
O131        O  0.47220764  0.27702375  0.08370787    -0.70300
O132        O  0.47300122  0.19046986  0.08416357    -0.70300
O133        O  0.47335862  0.23448178  0.11304547    -0.70200
O134        O  0.47185353  0.23334528  0.05487013    -0.70400
V135        V  0.02892615  0.26218791  0.08356936     1.35200
V136        V  0.47372044  0.23434972  0.08394968     1.35200
C137        C  0.50036804  0.24678868  0.04471852     0.79000
C138        C  0.50225037  0.25023001  0.12285374     0.79100
C139        C  0.00184604  0.19006853  0.08465270     0.78900
C140        C  0.00067102  0.30633198  0.08265795     0.78900
O141        O  0.27609948  0.46647611  0.08330588    -0.70200
O142        O  0.28187030  0.05665073  0.08191330    -0.70500
O143        O  0.28289300  0.01459363  0.11160474    -0.70300
O144        O  0.28091450  0.01160371  0.05346752    -0.70300
O145        O  0.21840399  0.48275550  0.05404470    -0.70300
O146        O  0.21937738  0.48078709  0.11220770    -0.70300
O147        O  0.22451808  0.02804178  0.08391152    -0.70200
O148        O  0.21860999  0.43801093  0.08248579    -0.70400
V149        V  0.28075302  0.01250929  0.08254338     1.35200
V150        V  0.22002244  0.48226523  0.08313014     1.35200
C151        C  0.24730340  0.43731339  0.08292969     0.79000
C152        C  0.25315289  0.05727911  0.08290352     0.79100
C153        C  0.25449616  0.99944884  0.12185653     0.78900
C154        C  0.25180272  0.99852532  0.04395762     0.78900
O155        O  0.22073186  0.23273583  0.05504831    -0.70200
O156        O  0.22214643  0.23280311  0.11322634    -0.70500
O157        O  0.22040705  0.27569192  0.08438483    -0.70300
O158        O  0.22240197  0.18969816  0.08389726    -0.70300
O159        O  0.27983174  0.21917695  0.08389758    -0.70300
O160        O  0.27785705  0.30519289  0.08352111    -0.70300
O161        O  0.27956334  0.26291222  0.11285230    -0.70200
O162        O  0.27816894  0.26164407  0.05465612    -0.70400
V163        V  0.22253280  0.23326876  0.08414104     1.35200
V164        V  0.27775153  0.26164988  0.08374831     1.35200
C165        C  0.24923402  0.24722980  0.04485605     0.79000
C166        C  0.25105560  0.24817526  0.12303426     0.79100
C167        C  0.24882021  0.30519975  0.08389409     0.78900
C168        C  0.25142424  0.18963534  0.08380877     0.78900
O169        O  0.02731190  0.05663602  0.91690720    -0.70200
O170        O  0.43795515  0.47181024  0.91609837    -0.70500
O171        O  0.48352877  0.01215056  0.94562416    -0.70300
O172        O  0.48390480  0.01414497  0.88741630    -0.70300
O173        O  0.00942220  0.48666950  0.88727890    -0.70300
O174        O  0.01148638  0.48703332  0.94539626    -0.70300
O175        O  0.46693464  0.44337778  0.91674754    -0.70200
O176        O  0.05621509  0.02815371  0.91556796    -0.70400
V177        V  0.48427092  0.01259283  0.91652312     1.35200
V178        V  0.00980967  0.48730297  0.91634132     1.35200
C179        C  0.05668615  0.05733908  0.91629980     0.79000
C180        C  0.43753247  0.44259530  0.91638694     0.79100
C181        C  0.99937299  0.99894150  0.95533887     0.78900
C182        C  0.99778337  0.99918473  0.87727101     0.78900
O183        O  0.05591363  0.27891394  0.91760612    -0.70200
O184        O  0.46954405  0.19124151  0.91573586    -0.70500
O185        O  0.01376932  0.23750353  0.88763205    -0.70300
O186        O  0.01222484  0.23329969  0.94575906    -0.70300
O187        O  0.48420698  0.26264858  0.94654614    -0.70300
O188        O  0.48212949  0.26317016  0.88834897    -0.70300
O189        O  0.44017445  0.21919715  0.91770590    -0.70200
O190        O  0.02661450  0.30703941  0.91725568    -0.70400
V191        V  0.01226602  0.23578162  0.91670085     1.35200
V192        V  0.48383663  0.26244498  0.91744095     1.35200
C193        C  0.05613187  0.30798607  0.91747827     0.79000
C194        C  0.44002234  0.19018421  0.91667603     0.79100
C195        C  0.99814661  0.25104175  0.87811343     0.78900
C196        C  0.99836248  0.24774117  0.95611860     0.78900
O197        O  0.23451013  0.01297787  0.94583897    -0.70200
O198        O  0.23450160  0.01372387  0.88758709    -0.70500
O199        O  0.18999472  0.47034971  0.91653131    -0.70300
O200        O  0.27804338  0.05639634  0.91685693    -0.70300
O201        O  0.30651878  0.02745479  0.91637390    -0.70300
O202        O  0.21860668  0.44153892  0.91653599    -0.70300
O203        O  0.26230056  0.48496647  0.88750309    -0.70200
O204        O  0.26210585  0.48468689  0.94563613    -0.70400
V205        V  0.23493361  0.01268164  0.91671654     1.35200
V206        V  0.26167819  0.48545993  0.91657429     1.35200
C207        C  0.24902085  0.99857572  0.95565158     0.79000
C208        C  0.24853452  0.99909500  0.87754609     0.79100
C209        C  0.18931645  0.44103608  0.91660743     0.78900
C210        C  0.30726892  0.05680827  0.91666683     0.78900
O211        O  0.27596519  0.30701902  0.91847229    -0.70200
O212        O  0.18989630  0.21944304  0.91657201    -0.70500
O213        O  0.23153605  0.26118874  0.94663355    -0.70300
O214        O  0.23402158  0.26483895  0.88847756    -0.70300
O215        O  0.26105044  0.23448761  0.88809380    -0.70300
O216        O  0.26417203  0.23638796  0.94622589    -0.70300
O217        O  0.21927438  0.19144221  0.91791081    -0.70200
O218        O  0.30556236  0.27930225  0.91638296    -0.70400
V219        V  0.23345243  0.26261930  0.91754123     1.35200
V220        V  0.26193871  0.23589652  0.91716978     1.35200
C221        C  0.30555321  0.30825822  0.91735506     0.79000
C222        C  0.18972847  0.19041783  0.91718807     0.79100
C223        C  0.24788368  0.24858635  0.95629647     0.78900
C224        C  0.24749866  0.24982507  0.87829191     0.78900
O225        O  0.01759013  0.02427689  0.55356538    -0.70200
O226        O  0.01608587  0.02626126  0.61156134    -0.70500
O227        O  0.06047421  0.02528223  0.58339308    -0.70300
O228        O  0.47336883  0.02510389  0.58171637    -0.70300
O229        O  0.44205915  0.47055259  0.58411055    -0.70300
O230        O  0.02936670  0.47097752  0.58264865    -0.70300
O231        O  0.48730172  0.47160683  0.61247773    -0.70200
O232        O  0.48406382  0.46981352  0.55432237    -0.70400
V233        V  0.01635348  0.02410805  0.58257656     1.35200
V234        V  0.48621302  0.47178161  0.58340050     1.35200
C235        C  0.00100885  0.99541745  0.54390031     0.79000
C236        C  0.00387126  0.99800877  0.62180187     0.79100
C237        C  0.06113079  0.99665405  0.58264257     0.78900
C238        C  0.44418021  0.99650897  0.58321418     0.78900
O239        O  0.44248395  0.21801759  0.58345640    -0.70200
O240        O  0.02939686  0.21775952  0.58554579    -0.70500
O241        O  0.48437608  0.21797976  0.61366025    -0.70300
O242        O  0.48746833  0.21779161  0.55537592    -0.70300
O243        O  0.01391770  0.27521904  0.55541319    -0.70300
O244        O  0.01571754  0.27539223  0.61350450    -0.70300
O245        O  0.05818775  0.27506848  0.58398934    -0.70200
O246        O  0.47126863  0.27530109  0.58492240    -0.70400
V247        V  0.48646924  0.21894862  0.58451108     1.35200
V248        V  0.01425025  0.27416694  0.58445607     1.35200
C249        C  0.44195493  0.24670981  0.58403984     0.79000
C250        C  0.05869869  0.24638319  0.58485201     0.79100
C251        C  0.00002703  0.24683202  0.62352702     0.78900
C252        C  0.00071869  0.24657765  0.54544414     0.78900
O253        O  0.19231532  0.47111353  0.58400712    -0.70200
O254        O  0.27915304  0.47070845  0.58272289    -0.70500
O255        O  0.23719160  0.47147790  0.61241746    -0.70300
O256        O  0.23451421  0.47040406  0.55417868    -0.70300
O257        O  0.26718318  0.02395046  0.55350863    -0.70300
O258        O  0.26682748  0.02653722  0.61163592    -0.70300
O259        O  0.31054611  0.02517205  0.58311289    -0.70200
O260        O  0.22352426  0.02516153  0.58204938    -0.70400
V261        V  0.23631094  0.47201938  0.58331619     1.35200
V262        V  0.26648851  0.02408881  0.58257712     1.35200
C263        C  0.19426020  0.99654922  0.58302570     0.79000
C264        C  0.31113733  0.99649416  0.58307456     0.79100
C265        C  0.25372342  0.99828834  0.62196544     0.78900
C266        C  0.25172355  0.99496370  0.54385107     0.78900
O267        O  0.26247009  0.27448838  0.55498925    -0.70200
O268        O  0.26755087  0.27787228  0.61293667    -0.70500
O269        O  0.30848796  0.27600069  0.58287115    -0.70300
O270        O  0.22138926  0.27597934  0.58497264    -0.70300
O271        O  0.19279223  0.21863000  0.58430318    -0.70300
O272        O  0.27985999  0.21884938  0.58555469    -0.70300
O273        O  0.23597592  0.22051432  0.61406232    -0.70200
O274        O  0.23636016  0.21720168  0.55580448    -0.70400
V275        V  0.26444930  0.27498647  0.58395891     1.35200
V276        V  0.23685891  0.21986988  0.58493075     1.35200
C277        C  0.24871353  0.24542209  0.54544290     0.79000
C278        C  0.25182160  0.24983577  0.62338351     0.79100
C279        C  0.30911416  0.24739854  0.58407813     0.78900
C280        C  0.19213150  0.24724785  0.58466480     0.78900
O281        O  0.46934286  0.44719916  0.74982205    -0.70200
O282        O  0.06060834  0.03104932  0.75028113    -0.70500
O283        O  0.01305237  0.49042046  0.77876479    -0.70300
O284        O  0.01358685  0.48937858  0.72068816    -0.70300
O285        O  0.48880163  0.01589116  0.71973071    -0.70300
O286        O  0.48762122  0.01732284  0.77797686    -0.70300
O287        O  0.03198212  0.05985169  0.74884256    -0.70200
O288        O  0.44119415  0.47645753  0.74937444    -0.70400
V289        V  0.01283529  0.49055995  0.74971842     1.35200
V290        V  0.48871716  0.01611353  0.74884993     1.35200
C291        C  0.44019935  0.44699341  0.74955725     0.79000
C292        C  0.06121671  0.06035382  0.74959671     0.79100
C293        C  0.00113574  0.00214784  0.78834840     0.78900
C294        C  0.00383361  0.00158264  0.71028857     0.78900
O295        O  0.44341272  0.22153806  0.74963207    -0.70200
O296        O  0.02926131  0.30937859  0.75089584    -0.70500
O297        O  0.48779563  0.26554493  0.72118243    -0.70300
O298        O  0.48457902  0.26512565  0.77933742    -0.70300
O299        O  0.01616248  0.23951078  0.78029138    -0.70300
O300        O  0.01536641  0.23574068  0.72212335    -0.70300
O301        O  0.05873631  0.28142992  0.75057635    -0.70200
O302        O  0.47292677  0.19374117  0.75183721    -0.70400
V303        V  0.48693357  0.26491027  0.75027327     1.35200
V304        V  0.01516661  0.23813223  0.75119824     1.35200
C305        C  0.44338137  0.19257648  0.75063889     0.79000
C306        C  0.05884887  0.31046126  0.75080430     0.79100
C307        C  0.00138891  0.25011215  0.71182643     0.78900
C308        C  0.00004892  0.25259788  0.78973474     0.78900
O309        O  0.19314975  0.47308393  0.74998082    -0.70200
O310        O  0.28164728  0.05867035  0.74929019    -0.70500
O311        O  0.23806666  0.01493821  0.72035252    -0.70300
O312        O  0.23802015  0.01634552  0.77864602    -0.70300
O313        O  0.26530706  0.48725896  0.77896736    -0.70300
O314        O  0.26503963  0.48633897  0.72082054    -0.70300
O315        O  0.31007919  0.02969344  0.75006340    -0.70200
O316        O  0.22131966  0.44383940  0.75015903    -0.70400
V317        V  0.23849814  0.01501525  0.74951366     1.35200
V318        V  0.26467252  0.48743779  0.74989740     1.35200
C319        C  0.19216799  0.44361919  0.75027481     0.79000
C320        C  0.31085697  0.05905844  0.74967481     0.79100
C321        C  0.25109876  0.50100966  0.71073987     0.78900
C322        C  0.25126653  0.50204068  0.78882774     0.78900
O323        O  0.22218490  0.19633040  0.74964189    -0.70200
O324        O  0.30747525  0.28476043  0.75076262    -0.70500
O325        O  0.26403715  0.23953278  0.77922695    -0.70300
O326        O  0.26592406  0.24178125  0.72115724    -0.70300
O327        O  0.23418516  0.26758622  0.72115681    -0.70300
O328        O  0.23478802  0.26770492  0.77939445    -0.70300
O329        O  0.27743517  0.31211689  0.75013773    -0.70200
O330        O  0.19184740  0.22346932  0.75030916    -0.70400
V331        V  0.26430306  0.24113897  0.75019623     1.35200
V332        V  0.23515513  0.26723480  0.75026742     1.35200
C333        C  0.19240056  0.19476074  0.74991413     0.79000
C334        C  0.30720214  0.31359011  0.75036970     0.79100
C335        C  0.24914836  0.25323083  0.78929898     0.78900
C336        C  0.25021819  0.25485174  0.71132528     0.78900
C337        C  0.37690849  0.15753746  0.75077246     0.25100
C338        C  0.40961688  0.15830379  0.75034388    -0.23000
C339        C  0.40956422  0.12599022  0.74948942     0.20000
C340        C  0.37761434  0.09378586  0.74920596     0.25100
C341        C  0.34491073  0.09308110  0.74975882    -0.22900
C342        C  0.34504696  0.12542771  0.75047424     0.20000
F343        F  0.31430051  0.12626807  0.75097556    -0.12900
F344        F  0.37547700  0.18789858  0.75159021    -0.15200
F345        F  0.37889896  0.06335111  0.74828343    -0.15200
F346        F  0.44040665  0.12534775  0.74875907    -0.12900
C347        C  0.15746562  0.37718358  0.75090788     0.25100
C348        C  0.15791548  0.40969787  0.75073490    -0.23000
C349        C  0.12531445  0.40925615  0.75102741     0.20000
C350        C  0.09318930  0.37716531  0.75112346     0.25100
C351        C  0.09281470  0.34467027  0.75096004    -0.22900
C352        C  0.12543512  0.34518759  0.75099165     0.20000
F353        F  0.12663602  0.31468017  0.75110983    -0.12900
F354        F  0.18807566  0.37606541  0.75101592    -0.15200
F355        F  0.06248678  0.37810524  0.75137780    -0.15200
F356        F  0.12429152  0.43985550  0.75126576    -0.12900
C357        C  0.37330430  0.41253903  0.74985853     0.25100
C358        C  0.40595872  0.41307790  0.74951229    -0.23000
C359        C  0.40561447  0.38063265  0.74917737     0.20000
C360        C  0.37367620  0.34860826  0.74946670     0.25100
C361        C  0.34100129  0.34794680  0.75005048    -0.22900
C362        C  0.34122311  0.38037360  0.75012923     0.20000
F363        F  0.31044498  0.38116408  0.75049557    -0.12900
F364        F  0.37220048  0.44310118  0.74996147    -0.15200
F365        F  0.37503572  0.31819057  0.74909697    -0.15200
F366        F  0.43625074  0.37959805  0.74850342    -0.12900
C367        C  0.12642065  0.09707248  0.75731201     0.25100
C368        C  0.09503381  0.09453178  0.74957589    -0.23000
C369        C  0.09607637  0.12525714  0.74195095     0.20000
C370        C  0.12768510  0.15768789  0.74202408     0.25100
C371        C  0.15903953  0.16026150  0.74976008    -0.22900
C372        C  0.15809694  0.12961023  0.75740331     0.20000
F373        F  0.18761392  0.13126862  0.76553086    -0.12900
F374        F  0.12632843  0.06831524  0.76534694    -0.15200
F375        F  0.12768741  0.18645034  0.73405891    -0.15200
F376        F  0.06658579  0.12392386  0.73402046    -0.12900
C377        C  0.22004454  0.22974211  0.65676126     0.25100
C378        C  0.25146197  0.25145149  0.64590740    -0.23000
C379        C  0.28220441  0.27526641  0.65672450     0.20000
C380        C  0.28175461  0.27652076  0.67814338     0.25100
C381        C  0.25036026  0.25474830  0.68889522    -0.22900
C382        C  0.21941627  0.23172418  0.67813271     0.20000
F383        F  0.18883001  0.21066685  0.68838725    -0.12900
F384        F  0.18978377  0.20723935  0.64662777    -0.15200
F385        F  0.31183530  0.29909549  0.68841401    -0.15200
F386        F  0.31285267  0.29658907  0.64658960    -0.12900
C387        C  0.25656194  0.47603906  0.67714758     0.25100
C388        C  0.25139349  0.50100741  0.68802862    -0.23000
C389        C  0.24790645  0.02458598  0.67652548     0.20000
C390        C  0.24880678  0.02442189  0.65507836     0.25100
C391        C  0.25410284  0.99930137  0.64458551    -0.22900
C392        C  0.25646168  0.47584529  0.65571191     0.20000
F393        F  0.26177339  0.45161737  0.64566832    -0.12900
F394        F  0.26114667  0.45135815  0.68720129    -0.15200
F395        F  0.24361422  0.04831736  0.64455199    -0.15200
F396        F  0.24234578  0.04903264  0.68609122    -0.12900
C397        C  0.37537546  0.21490803  0.58392897     0.25100
C398        C  0.40798693  0.24689516  0.58374827    -0.23000
C399        C  0.40771671  0.27904677  0.58335033     0.20000
C400        C  0.37572555  0.27922986  0.58335199     0.25100
C401        C  0.34311077  0.24724307  0.58379062    -0.22900
C402        C  0.34339235  0.21509105  0.58397316     0.20000
F403        F  0.31269370  0.18353623  0.58416171    -0.12900
F404        F  0.37419271  0.18321566  0.58415361    -0.15200
F405        F  0.37690503  0.31091689  0.58301229    -0.15200
F406        F  0.43842834  0.31058544  0.58293100    -0.12900
C407        C  0.09367304  0.21520113  0.58102580     0.25100
C408        C  0.09274494  0.24645856  0.58496569    -0.23000
C409        C  0.12480116  0.27793050  0.58883775     0.20000
C410        C  0.15700425  0.27820498  0.58871876     0.25100
C411        C  0.15797686  0.24698639  0.58472846    -0.22900
C412        C  0.12589932  0.21548807  0.58084348     0.20000
F413        F  0.12555505  0.18486394  0.57652367    -0.12900
F414        F  0.06347186  0.18432454  0.57697659    -0.15200
F415        F  0.18716838  0.30910594  0.59276743    -0.15200
F416        F  0.12512837  0.30856511  0.59307874    -0.12900
C417        C  0.47263202  0.21991699  0.65750050     0.25100
C418        C  0.00033556  0.24730312  0.64621292    -0.23000
C419        C  0.02855246  0.27536170  0.65686131     0.20000
C420        C  0.02895827  0.27604425  0.67829011     0.25100
C421        C  0.00115617  0.24892460  0.68938654    -0.22900
C422        C  0.47309762  0.22085718  0.67895943     0.20000
F423        F  0.44585415  0.19461330  0.68960587    -0.12900
F424        F  0.44460106  0.19284906  0.64780137    -0.15200
F425        F  0.05649592  0.30320465  0.68825292    -0.15200
F426        F  0.05611760  0.30184747  0.64655288    -0.12900
C427        C  0.37741118  0.02806808  0.58008721     0.25100
C428        C  0.34516266  0.99651180  0.58335449    -0.23000
C429        C  0.34336884  0.46837767  0.58794010     0.20000
C430        C  0.37541884  0.46829957  0.58789286     0.25100
C431        C  0.41014447  0.99650615  0.58344424    -0.22900
C432        C  0.40946661  0.02806784  0.58011288     0.20000
F433        F  0.43980254  0.05913162  0.57668818    -0.12900
F434        F  0.37812056  0.05910493  0.57661904    -0.15200
F435        F  0.37517172  0.43815690  0.59339749    -0.15200
F436        F  0.31341974  0.43836087  0.59355066    -0.12900
C437        C  0.12768801  0.02861229  0.58141689     0.25100
C438        C  0.09519315  0.99665302  0.58281766    -0.23000
C439        C  0.09327484  0.46809071  0.58647230     0.20000
C440        C  0.12537183  0.46812346  0.58655366     0.25100
C441        C  0.16021301  0.99659818  0.58307268    -0.22900
C442        C  0.15975657  0.02858720  0.58152730     0.20000
F443        F  0.19034109  0.06009329  0.58004713    -0.12900
F444        F  0.12866092  0.06011519  0.57979360    -0.15200
F445        F  0.12453429  0.43683308  0.58914869    -0.15200
F446        F  0.06279513  0.43676695  0.58895762    -0.12900
C447        C  0.50898111  0.48006809  0.65585689     0.25100
C448        C  0.00424533  0.99906470  0.64434422    -0.23000
C449        C  0.99689176  0.02288428  0.65470504     0.20000
C450        C  0.99673782  0.02370933  0.67611080     0.25100
C451        C  0.00438243  0.00097230  0.68758679    -0.22900
C452        C  0.50924042  0.48106910  0.67726778     0.20000
F453        F  0.51904063  0.46029537  0.68760334    -0.12900
F454        F  0.51910039  0.45901326  0.64613274    -0.15200
F455        F  0.98946186  0.04709817  0.68554565    -0.15200
F456        F  0.98897286  0.04483065  0.64408655    -0.12900
C457        C  0.26241732  0.23334725  0.84427649     0.25100
C458        C  0.24754710  0.25032996  0.85552109    -0.23000
C459        C  0.23288124  0.26797093  0.84472511     0.20000
C460        C  0.23331952  0.26885132  0.82330069     0.25100
C461        C  0.24849132  0.25216998  0.81206268    -0.22900
C462        C  0.26290442  0.23427462  0.82285565     0.20000
F463        F  0.27748022  0.21741409  0.81275959    -0.12900
F464        F  0.27659638  0.21569271  0.85392047    -0.15200
F465        F  0.21888618  0.28624526  0.81364046    -0.15200
F466        F  0.21806431  0.28458650  0.85482648    -0.12900
C467        C  0.24571047  0.52639923  0.84398655     0.25100
C468        C  0.24905736  0.99966905  0.85485025    -0.23000
C469        C  0.25178523  0.97342671  0.84380228     0.20000
C470        C  0.25278494  0.97414362  0.82238329     0.25100
C471        C  0.25099912  0.00107866  0.81150331    -0.22900
C472        C  0.24661321  0.52709996  0.82255231     0.20000
F473        F  0.24420216  0.55319853  0.81264648    -0.12900
F474        F  0.24251644  0.55187964  0.85408805    -0.15200
F475        F  0.25461769  0.94787122  0.81230024    -0.15200
F476        F  0.25263465  0.94646848  0.85369501    -0.12900
C477        C  0.40598971  0.12358097  0.91690719     0.25100
C478        C  0.40615470  0.15597019  0.91666213    -0.23000
C479        C  0.37347582  0.15530720  0.91655178     0.20000
C480        C  0.34155284  0.12322344  0.91664558     0.25100
C481        C  0.34133620  0.09081893  0.91676613    -0.22900
C482        C  0.37400045  0.09142858  0.91696413     0.20000
F483        F  0.37521934  0.06093253  0.91728328    -0.12900
F484        F  0.43677275  0.12279573  0.91719367    -0.15200
F485        F  0.31083492  0.12414159  0.91659679    -0.15200
F486        F  0.37213056  0.18573626  0.91627223    -0.12900
C487        C  0.09052543  0.37456940  0.91813459     0.25100
C488        C  0.09012152  0.34209396  0.91744862    -0.23000
C489        C  0.12269216  0.34255686  0.91657117     0.20000
C490        C  0.15473773  0.37454949  0.91627940     0.25100
C491        C  0.15517996  0.40704773  0.91686960    -0.22900
C492        C  0.12261782  0.40660979  0.91784839     0.20000
F493        F  0.12159333  0.43718854  0.91860786    -0.12900
F494        F  0.05987971  0.37555016  0.91914652    -0.15200
F495        F  0.18533168  0.37345910  0.91535850    -0.15200
F496        F  0.12380232  0.31201450  0.91589615    -0.12900
C497        C  0.02959876  0.25940315  0.84485123     0.25100
C498        C  0.99877385  0.25250337  0.85553456    -0.23000
C499        C  0.46865075  0.24648588  0.84439124     0.20000
C500        C  0.46920039  0.24693530  0.82293348     0.25100
C501        C  0.99971720  0.25325499  0.81232821    -0.22900
C502        C  0.03004418  0.25970748  0.82342986     0.20000
F503        F  0.06043449  0.26720916  0.81352256    -0.12900
F504        F  0.05962282  0.26679049  0.85517651    -0.15200
F505        F  0.43932977  0.23992235  0.81255983    -0.15200
F506        F  0.43827630  0.23905321  0.85429455    -0.12900
C507        C  0.37081161  0.40715142  0.91505616     0.25100
C508        C  0.40366624  0.40829650  0.91643600    -0.23000
C509        C  0.40383220  0.37614419  0.91799754     0.20000
C510        C  0.37210175  0.34382874  0.91833888     0.25100
C511        C  0.33924990  0.34266958  0.91708253    -0.22900
C512        C  0.33903443  0.37477797  0.91538494     0.20000
F513        F  0.30806866  0.37504458  0.91381725    -0.12900
F514        F  0.36920846  0.43732723  0.91325204    -0.15200
F515        F  0.37377117  0.31367645  0.92006234    -0.15200
F516        F  0.43474037  0.37571132  0.91929262    -0.12900
C517        C  0.12320324  0.15579273  0.91537916     0.25100
C518        C  0.15574791  0.15630677  0.91702806    -0.23000
C519        C  0.15531556  0.12388467  0.91851618     0.20000
C520        C  0.12324282  0.09185095  0.91826143     0.25100
C521        C  0.09073013  0.09135961  0.91653476    -0.22900
C522        C  0.09115877  0.12378720  0.91516840     0.20000
F523        F  0.06057182  0.12477030  0.91351062    -0.12900
F524        F  0.12211973  0.18628756  0.91389427    -0.15200
F525        F  0.12421371  0.06132141  0.91992477    -0.15200
F526        F  0.18590301  0.12294984  0.92033130    -0.12900
C527        C  0.48722463  0.02086249  0.84348707     0.25100
C528        C  0.99803758  0.99968124  0.85451330    -0.23000
C529        C  0.00711130  0.48217755  0.84364178     0.20000
C530        C  0.00791623  0.48297895  0.82224548     0.25100
C531        C  0.00002830  0.00143981  0.81108829    -0.22900
C532        C  0.48820971  0.02171207  0.82203561     0.20000
F533        F  0.47806520  0.04257355  0.81210684    -0.12900
F534        F  0.47617531  0.04096605  0.85343428    -0.15200
F535        F  0.01791615  0.46202664  0.81230068    -0.15200
F536        F  0.01642218  0.46053339  0.85341102    -0.12900
C537        C  0.28035452  0.26299367  0.98944236     0.25100
C538        C  0.24811367  0.24823151  0.97879922    -0.23000
C539        C  0.21618378  0.23307017  0.98976655     0.20000
C540        C  0.21642174  0.23236578  0.01120693     0.25100
C541        C  0.24879110  0.24746374  0.02207664    -0.22900
C542        C  0.28079570  0.26298291  0.01086940     0.20000
F543        F  0.31266699  0.27835262  0.02054734    -0.12900
F544        F  0.31153401  0.27832284  0.97904372    -0.15200
F545        F  0.18488656  0.21682456  0.02122785    -0.15200
F546        F  0.18469049  0.21804795  0.97967002    -0.12900
C547        C  0.27820015  0.40246148  0.07761876     0.25100
C548        C  0.24738176  0.40337179  0.08306296    -0.23000
C549        C  0.21692949  0.37162669  0.08881612     0.20000
C550        C  0.21733742  0.33975227  0.08912502     0.25100
C551        C  0.24819859  0.33888274  0.08364950    -0.22900
C552        C  0.27858196  0.37064436  0.07786266     0.20000
F553        F  0.30869640  0.37099614  0.07205013    -0.12900
F554        F  0.30801723  0.43232341  0.07168635    -0.15200
F555        F  0.18763511  0.30989307  0.09519378    -0.15200
F556        F  0.18689902  0.37143924  0.09464196    -0.12900
C557        C  0.22022108  0.12319688  0.08200908     0.25100
C558        C  0.25201367  0.15584207  0.08352176    -0.23000
C559        C  0.28430988  0.15573931  0.08462201     0.20000
C560        C  0.28474114  0.12387635  0.08429110     0.25100
C561        C  0.25290843  0.09124088  0.08293606    -0.22900
C562        C  0.22065322  0.09138420  0.08170955     0.20000
F563        F  0.18926208  0.06071752  0.08002581    -0.12900
F564        F  0.18841508  0.12179534  0.08068671    -0.15200
F565        F  0.31650811  0.12517269  0.08546051    -0.15200
F566        F  0.31568269  0.18645896  0.08613584    -0.12900
C567        C  0.25425263  0.47360830  0.01051179     0.25100
C568        C  0.25108081  0.99861477  0.02153536    -0.23000
C569        C  0.24358844  0.02215468  0.01105362     0.20000
C570        C  0.24293353  0.02227388  0.98961301     0.25100
C571        C  0.24956593  0.99856689  0.97836411    -0.22900
C572        C  0.25424119  0.47412635  0.98908316     0.20000
F573        F  0.26055102  0.45072801  0.97884963    -0.12900
F574        F  0.26099401  0.45025743  0.02047263    -0.15200
F575        F  0.23652167  0.04606960  0.97992805    -0.15200
F576        F  0.23762733  0.04550889  0.02161770    -0.12900
C577        C  0.47265712  0.24986499  0.99007055     0.25100
C578        C  0.99872329  0.24714691  0.97879706    -0.23000
C579        C  0.02522953  0.24404357  0.98939492     0.20000
C580        C  0.02601844  0.24432486  0.01083817     0.25100
C581        C  0.99985936  0.24686486  0.02209797    -0.22900
C582        C  0.47309805  0.24950953  0.01150364     0.20000
F583        F  0.44799134  0.25295631  0.02191990    -0.12900
F584        F  0.44649168  0.25259368  0.98040083    -0.15200
F585        F  0.05208604  0.24154144  0.02058652    -0.15200
F586        F  0.05089488  0.24148663  0.97902872    -0.12900
C587        C  0.03144378  0.40454686  0.08021643     0.25100
C588        C  0.99917739  0.40461926  0.08173165    -0.23000
C589        C  0.46740113  0.37198539  0.08291346     0.20000
C590        C  0.46787539  0.34018620  0.08296127     0.25100
C591        C  0.00015284  0.34010966  0.08191446    -0.22900
C592        C  0.03191578  0.37274246  0.08028013     0.20000
F593        F  0.06368690  0.37412745  0.07873891    -0.12900
F594        F  0.06280400  0.43527138  0.07864497    -0.15200
F595        F  0.43646696  0.30944176  0.08417263    -0.15200
F596        F  0.43559091  0.37057173  0.08416702    -0.12900
C597        C  0.47021170  0.12349954  0.08465202     0.25100
C598        C  0.00216145  0.15613679  0.08498604    -0.23000
C599        C  0.03444403  0.15595648  0.08551853     0.20000
C600        C  0.03477773  0.12406415  0.08528115     0.25100
C601        C  0.00285912  0.09143004  0.08453026    -0.22900
C602        C  0.47053645  0.09161303  0.08439721     0.20000
F603        F  0.43899514  0.06091591  0.08387573    -0.12900
F604        F  0.43837330  0.12215902  0.08443322    -0.15200
F605        F  0.06658484  0.12536513  0.08578975    -0.15200
F606        F  0.06595245  0.18666222  0.08621940    -0.12900
C607        C  0.03061166  0.00247712  0.00994765     0.25100
C608        C  0.00200843  0.00018931  0.02126857    -0.23000
C609        C  0.46794913  0.49634682  0.01098070     0.20000
C610        C  0.46776575  0.49729805  0.98954248     0.25100
C611        C  0.00031421  0.99937601  0.97796707    -0.22900
C612        C  0.02963140  0.00178134  0.98851011     0.20000
F613        F  0.05772243  0.00416652  0.97806729    -0.12900
F614        F  0.05931084  0.00470835  0.01959344    -0.15200
F615        F  0.43909958  0.49492976  0.97977678    -0.15200
F616        F  0.43977092  0.49394152  0.02132530    -0.12900
C617        C  0.24088137  0.21517679  0.49009596     0.25100
C618        C  0.24587785  0.24540382  0.47940487    -0.23000
C619        C  0.25071476  0.27500128  0.49064185     0.20000
C620        C  0.25116521  0.27469590  0.51202440     0.25100
C621        C  0.24704152  0.24485967  0.52275738    -0.22900
C622        C  0.24152634  0.21493334  0.51156117     0.20000
F623        F  0.23763345  0.18569862  0.52131354    -0.12900
F624        F  0.23636193  0.18613881  0.47981838    -0.15200
F625        F  0.25510813  0.30360764  0.52219535    -0.15200
F626        F  0.25448645  0.30424944  0.48096936    -0.12900
C627        C  0.22763206  0.46800969  0.48872522     0.25100
C628        C  0.24833819  0.99546384  0.47769554    -0.23000
C629        C  0.27383063  0.02520524  0.48858875     0.20000
C630        C  0.27517225  0.02474999  0.50997868     0.25100
C631        C  0.25102439  0.99455250  0.52108703    -0.22900
C632        C  0.22770530  0.46770611  0.51018218     0.20000
F633        F  0.20625851  0.43679143  0.51999662    -0.12900
F634        F  0.20594044  0.43743489  0.47865083    -0.15200
F635        F  0.30062084  0.05388979  0.51976844    -0.15200
F636        F  0.29809314  0.05470904  0.47854937    -0.12900
C637        C  0.00000367  0.27540645  0.49078169     0.25100
C638        C  0.99998328  0.24796296  0.47946221    -0.23000
C639        C  0.50006194  0.21984027  0.49003127     0.20000
C640        C  0.50031405  0.21930501  0.51149016     0.25100
C641        C  0.00046666  0.24687315  0.52277428    -0.22900
C642        C  0.00024495  0.27487025  0.51219174     0.20000
F643        F  0.99926157  0.30135564  0.52256258    -0.12900
F644        F  0.99879742  0.30237898  0.48114544    -0.15200
F645        F  0.50145705  0.19234408  0.52118463    -0.15200
F646        F  0.50095994  0.19335674  0.47960537    -0.12900
C647        C  0.37404876  0.21718959  0.41763913     0.25100
C648        C  0.40641782  0.24939611  0.41860782    -0.23000
C649        C  0.40565553  0.28124779  0.41965380     0.20000
C650        C  0.37343554  0.28092660  0.41962843     0.25100
C651        C  0.34106674  0.24874012  0.41856247    -0.22900
C652        C  0.34180649  0.21686534  0.41761965     0.20000
F653        F  0.31135144  0.18516545  0.41657964    -0.12900
F654        F  0.37335456  0.18576696  0.41655182    -0.15200
F655        F  0.37417537  0.31237804  0.42064694    -0.15200
F656        F  0.43608690  0.31295547  0.42076369    -0.12900
C657        C  0.12441495  0.28207461  0.41816867     0.25100
C658        C  0.09180687  0.25026432  0.41663442    -0.23000
C659        C  0.09200720  0.21817672  0.41484671     0.20000
C660        C  0.12389592  0.21784338  0.41487216     0.25100
C661        C  0.15648673  0.24958377  0.41666147    -0.22900
C662        C  0.15633162  0.28174452  0.41816823     0.20000
F663        F  0.18705318  0.31310794  0.41976494    -0.12900
F664        F  0.12565498  0.31371038  0.41976420    -0.15200
F665        F  0.12263309  0.18622679  0.41309200    -0.15200
F666        F  0.06131782  0.18683104  0.41307245    -0.12900
C667        C  0.47034098  0.47113984  0.48928382     0.25100
C668        C  0.99689693  0.99659301  0.47810974    -0.23000
C669        C  0.02644606  0.02287688  0.48873751     0.20000
C670        C  0.02787915  0.02217511  0.51009994     0.25100
C671        C  0.99970851  0.99527239  0.52128552    -0.22900
C672        C  0.47101363  0.47070946  0.51071450     0.20000
F673        F  0.44307852  0.44435254  0.52086470    -0.12900
F674        F  0.44181906  0.44518765  0.47928388    -0.15200
F675        F  0.05726597  0.04744443  0.51981765    -0.15200
F676        F  0.05448484  0.04879065  0.47841281    -0.12900
C677        C  0.37518253  0.47146304  0.41030967     0.25100
C678        C  0.40478890  0.99978418  0.41577392    -0.23000
C679        C  0.40306359  0.02947169  0.42263688     0.20000
C680        C  0.37090400  0.02937368  0.42239731     0.25100
C681        C  0.33970094  0.99950842  0.41538363    -0.22900
C682        C  0.34313071  0.47151903  0.41015960     0.20000
F683        F  0.31318720  0.44132733  0.40473813    -0.12900
F684        F  0.37490891  0.44124156  0.40497505    -0.15200
F685        F  0.37025786  0.05829106  0.42952481    -0.15200
F686        F  0.43231347  0.05837123  0.43009739    -0.12900
C687        C  0.09196792  0.46920201  0.41102006     0.25100
C688        C  0.08875980  0.99771289  0.41691326    -0.23000
C689        C  0.12027321  0.02764679  0.42349801     0.20000
C690        C  0.15236271  0.02764072  0.42335144     0.25100
C691        C  0.15376326  0.99769954  0.41661919    -0.22900
C692        C  0.12419043  0.46942016  0.41077311     0.20000
F693        F  0.12462951  0.44038085  0.40367460    -0.12900
F694        F  0.06237796  0.43993436  0.40420534    -0.15200
F695        F  0.18197454  0.05687673  0.43016999    -0.15200
F696        F  0.12007043  0.05687274  0.43047224    -0.12900
C697        C  0.28367308  0.26420878  0.17824961     0.25100
C698        C  0.25174015  0.25136314  0.18928449    -0.23000
C699        C  0.21969209  0.23746937  0.17826688     0.20000
C700        C  0.21952174  0.23632933  0.15686025     0.25100
C701        C  0.25139908  0.24911674  0.14581191    -0.22900
C702        C  0.28350451  0.26313381  0.15680231     0.20000
F703        F  0.31493620  0.27572508  0.14687537    -0.12900
F704        F  0.31527228  0.27777577  0.18813193    -0.15200
F705        F  0.18791205  0.22292626  0.14701419    -0.15200
F706        F  0.18822788  0.22501822  0.18812886    -0.12900
C707        C  0.26393532  0.28438007  0.32369914     0.25100
C708        C  0.25137957  0.25284445  0.31259786    -0.23000
C709        C  0.23937886  0.22084724  0.32308092     0.20000
C710        C  0.23979325  0.22024637  0.34450093     0.25100
C711        C  0.25157721  0.25171123  0.35586186    -0.22900
C712        C  0.26388242  0.28388204  0.34515948     0.20000
F713        F  0.27554824  0.31487370  0.35537131    -0.12900
F714        F  0.27544039  0.31556049  0.31372634    -0.15200
F715        F  0.22908700  0.18883958  0.35403305    -0.15200
F716        F  0.22808122  0.19023459  0.31251263    -0.12900
C717        C  0.28180992  0.40935284  0.25002055     0.25100
C718        C  0.24948104  0.40946555  0.24985052    -0.23000
C719        C  0.21757406  0.37676554  0.24963609     0.20000
C720        C  0.21795826  0.34489148  0.24982363     0.25100
C721        C  0.25029076  0.34479762  0.25023769    -0.22900
C722        C  0.28219141  0.37749258  0.25022775     0.20000
F723        F  0.31406255  0.37890531  0.25048252    -0.12900
F724        F  0.31332120  0.44008992  0.24998193    -0.15200
F725        F  0.18647253  0.31413092  0.24952119    -0.15200
F726        F  0.18571505  0.37536853  0.24921548    -0.12900
C727        C  0.28358560  0.12791999  0.25547067     0.25100
C728        C  0.25296025  0.09615221  0.24987575    -0.23000
C729        C  0.22198444  0.09710181  0.24487056     0.20000
C730        C  0.22164602  0.12898434  0.24541346     0.25100
C731        C  0.25228946  0.16077127  0.25101559    -0.22900
C732        C  0.28323425  0.15978514  0.25605539     0.20000
F733        F  0.31322810  0.18959960  0.26186333    -0.12900
F734        F  0.31390138  0.12822301  0.26076159    -0.15200
F735        F  0.19134047  0.12866519  0.24006652    -0.15200
F736        F  0.19200927  0.06726295  0.23905736    -0.12900
C737        C  0.22002340  0.47020343  0.15587695     0.25100
C738        C  0.25517603  0.00020273  0.14451209    -0.23000
C739        C  0.28367375  0.02795791  0.15511040     0.20000
C740        C  0.28367624  0.02923266  0.17653605     0.25100
C741        C  0.25524946  0.00273699  0.18777191    -0.22900
C742        C  0.21988784  0.47148972  0.17729523     0.20000
F743        F  0.19973508  0.94800347  0.18754587    -0.12900
F744        F  0.19967990  0.94558836  0.14611746    -0.15200
F745        F  0.30459918  0.55295220  0.18644678    -0.15200
F746        F  0.30507813  0.55032493  0.14503921    -0.12900
C747        C  0.27317398  0.03266645  0.34376385     0.25100
C748        C  0.24870194  0.00163346  0.35417748    -0.23000
C749        C  0.22467719  0.47216629  0.34327481     0.20000
C750        C  0.22468753  0.47232696  0.32186741     0.25100
C751        C  0.25195230  0.00309845  0.31093136    -0.22900
C752        C  0.27497419  0.03324265  0.32233803     0.20000
F753        F  0.29859557  0.06357501  0.31271388    -0.12900
F754        F  0.29575052  0.06239858  0.35426423    -0.15200
F755        F  0.20160234  0.44240620  0.31168247    -0.15200
F756        F  0.20094301  0.44218950  0.35314326    -0.12900
C757        C  0.03415179  0.27153649  0.15662580     0.25100
C758        C  0.00236531  0.25109395  0.14566321    -0.23000
C759        C  0.47082815  0.23185567  0.15679599     0.20000
C760        C  0.47087073  0.23280841  0.17821132     0.25100
C761        C  0.00234052  0.25297849  0.18916992    -0.22900
C762        C  0.03414473  0.27244040  0.17809205     0.20000
F763        F  0.06540307  0.29265408  0.18795453    -0.12900
F764        F  0.06540904  0.29099921  0.14664453    -0.15200
F765        F  0.43961946  0.21312791  0.18815753    -0.15200
F766        F  0.43950282  0.21145731  0.14704203    -0.12900
C767        C  0.47139980  0.22555368  0.32359314     0.25100
C768        C  0.00010218  0.25234966  0.31281995    -0.23000
C769        C  0.02867444  0.27905245  0.32394506     0.20000
C770        C  0.02811233  0.27913819  0.34538420     0.25100
C771        C  0.99923351  0.25222455  0.35613596    -0.22900
C772        C  0.47102428  0.22535823  0.34502577     0.20000
F773        F  0.44255696  0.19914875  0.35490396    -0.12900
F774        F  0.44363362  0.19902090  0.31341064    -0.15200
F775        F  0.05631578  0.30506627  0.35561299    -0.15200
F776        F  0.05704799  0.30542183  0.31409452    -0.12900
C777        C  0.03169864  0.37735764  0.25433589     0.25100
C778        C  0.99988846  0.34491127  0.25208990    -0.23000
C779        C  0.46809658  0.34544665  0.25056027     0.20000
C780        C  0.46795079  0.37743839  0.25066051     0.25100
C781        C  0.49988354  0.40991982  0.25247150    -0.22900
C782        C  0.03156647  0.40930642  0.25442713     0.20000
F783        F  0.06294791  0.43979929  0.25671923    -0.12900
F784        F  0.06323014  0.37842682  0.25654429    -0.15200
F785        F  0.43638808  0.37641414  0.24873612    -0.15200
F786        F  0.43668356  0.31488895  0.24855919    -0.12900
C787        C  0.03500788  0.12892417  0.24883867     0.25100
C788        C  0.50321410  0.09652100  0.24894992    -0.23000
C789        C  0.47107737  0.09696647  0.24943426     0.20000
C790        C  0.47100903  0.12893934  0.25003830     0.25100
C791        C  0.00270512  0.16128727  0.25015250    -0.22900
C792        C  0.03490393  0.16095712  0.24943206     0.20000
F793        F  0.06649530  0.19161747  0.24929151    -0.12900
F794        F  0.06671105  0.13002663  0.24807328    -0.15200
F795        F  0.43925965  0.12775111  0.25070740    -0.15200
F796        F  0.43939690  0.06641537  0.24941853    -0.12900
C797        C  0.03583713  0.02039709  0.15577369     0.25100
C798        C  0.00450127  0.99828341  0.14482446    -0.23000
C799        C  0.46911721  0.47397906  0.15637208     0.20000
C800        C  0.46930908  0.47499840  0.17780147     0.25100
C801        C  0.00418487  0.00039493  0.18823330    -0.22900
C802        C  0.03568416  0.02140648  0.17721024     0.20000
F803        F  0.06636774  0.04355350  0.18709703    -0.12900
F804        F  0.06666035  0.04170017  0.14579550    -0.15200
F805        F  0.43916528  0.45239387  0.18797852    -0.15200
F806        F  0.43872598  0.45055133  0.14667722    -0.12900
C807        C  0.02772683  0.03043869  0.32301494     0.25100
C808        C  0.00005022  0.00331393  0.31162689    -0.23000
C809        C  0.47277724  0.47590812  0.32269149     0.20000
C810        C  0.47305638  0.47512106  0.34408642     0.25100
C811        C  0.99871450  0.00142443  0.35489964    -0.22900
C812        C  0.02690602  0.02966660  0.34444797     0.20000
F813        F  0.05414346  0.05619280  0.35496166    -0.12900
F814        F  0.05536473  0.05805318  0.31342177    -0.15200
F815        F  0.44591503  0.44743519  0.35394480    -0.15200
F816        F  0.44586428  0.44850975  0.31249945    -0.12900
O817        O  0.03055356  0.97383827  0.25129492    -0.70200
O818        O  0.02901333  0.56020867  0.24905272    -0.70500
O819        O  0.02894967  0.51847456  0.27927387    -0.70300
O820        O  0.02882278  0.51490357  0.22115447    -0.70300
O821        O  0.47467614  0.98892041  0.22053698    -0.70300
O822        O  0.47262538  0.98955169  0.27864147    -0.70300
O823        O  0.47166303  0.53172260  0.24935847    -0.70200
O824        O  0.47313455  0.94567451  0.25011925    -0.70400
V825        V  0.02772579  0.51611990  0.25021488     1.35200
V826        V  0.47479125  0.98995103  0.24959749     1.35200
C827        C  0.50165182  0.94470531  0.25089137     0.79000
C828        C  0.50038964  0.56094290  0.24886596     0.79100
C829        C  0.00019165  0.50406161  0.28919425     0.78900
C830        C  0.00008583  0.50015443  0.21117383     0.78900
O831        O  0.02907393  0.72320813  0.25046189    -0.70200
O832        O  0.02918186  0.81020788  0.25002737    -0.70500
O833        O  0.02839227  0.76683232  0.27935033    -0.70300
O834        O  0.02986655  0.76653372  0.22112867    -0.70300
O835        O  0.47225808  0.73912955  0.22066257    -0.70300
O836        O  0.47058595  0.73653016  0.27885840    -0.70300
O837        O  0.47148132  0.78154626  0.25038231    -0.70200
O838        O  0.47144436  0.69450230  0.24907390    -0.70400
V839        V  0.02801850  0.76615802  0.25024183     1.35200
V840        V  0.47253966  0.73851923  0.24975516     1.35200
C841        C  0.00038164  0.69398966  0.24963504     0.79000
C842        C  0.00050055  0.81091068  0.25030818     0.79100
C843        C  0.99941599  0.75174829  0.28907854     0.78900
C844        C  0.00136018  0.75249957  0.21091306     0.78900
O845        O  0.28347784  0.97563864  0.24987410    -0.70200
O846        O  0.27724144  0.55946652  0.24902989    -0.70500
O847        O  0.27766907  0.51729744  0.27858487    -0.70300
O848        O  0.27725304  0.51521590  0.22043757    -0.70300
O849        O  0.22604287  0.98979916  0.22011181    -0.70300
O850        O  0.22453881  0.98896233  0.27816017    -0.70300
O851        O  0.21972522  0.53071738  0.24944139    -0.70200
O852        O  0.22604649  0.94653742  0.24908567    -0.70400
V853        V  0.27634036  0.51560259  0.24950759     1.35200
V854        V  0.22648874  0.99018513  0.24914631     1.35200
C855        C  0.25492478  0.94621779  0.24945157     0.79000
C856        C  0.24849736  0.56000161  0.24928121     0.79100
C857        C  0.24890904  0.50248103  0.28849334     0.78900
C858        C  0.24843012  0.50048300  0.21054076     0.78900
O859        O  0.28022992  0.72313379  0.25108411    -0.70200
O860        O  0.28249442  0.81132945  0.24872642    -0.70500
O861        O  0.28149042  0.76925433  0.27898135    -0.70300
O862        O  0.28142286  0.76546658  0.22082985    -0.70300
O863        O  0.22414289  0.74078364  0.22079826    -0.70300
O864        O  0.22391555  0.73815256  0.27892938    -0.70300
O865        O  0.22515405  0.78362329  0.25062742    -0.70200
O866        O  0.22285532  0.69557448  0.24898961    -0.70400
V867        V  0.28034264  0.76676043  0.24990729     1.35200
V868        V  0.22511120  0.74012569  0.24984933     1.35200
C869        C  0.25114138  0.69423201  0.25002210     0.79000
C870        C  0.25410791  0.81257838  0.24959607     0.79100
C871        C  0.25269475  0.75368608  0.28881320     0.78900
C872        C  0.25275383  0.75279591  0.21082787     0.78900
O873        O  0.48133198  0.96915933  0.44517185    -0.70200
O874        O  0.48309654  0.97160694  0.38697823    -0.70500
O875        O  0.02542343  0.96951047  0.41633026    -0.70300
O876        O  0.43902080  0.97084419  0.41579766    -0.70300
O877        O  0.47042416  0.53023784  0.41671032    -0.70300
O878        O  0.05662903  0.52844037  0.41747545    -0.70300
O879        O  0.01473097  0.53024763  0.38793722    -0.70200
O880        O  0.01265354  0.52826998  0.44603547    -0.70400
V881        V  0.48284625  0.97147860  0.41607523     1.35200
V882        V  0.01296244  0.52812502  0.41699333     1.35200
C883        C  0.99775857  0.49925039  0.45564094     0.79000
C884        C  0.00016101  0.50185967  0.37770007     0.79100
C885        C  0.05671565  0.49951639  0.41731925     0.78900
C886        C  0.44090681  0.50180035  0.41611553     0.78900
O887        O  0.02844258  0.72147731  0.41531699    -0.70200
O888        O  0.44102353  0.72042827  0.41793268    -0.70500
O889        O  0.48266697  0.72079244  0.38757849    -0.70300
O890        O  0.48613936  0.71992386  0.44575674    -0.70300
O891        O  0.01304557  0.77851691  0.44607692    -0.70300
O892        O  0.01462056  0.77938284  0.38788074    -0.70300
O893        O  0.46966317  0.77772535  0.41661509    -0.70200
O894        O  0.05729413  0.77872643  0.41727072    -0.70400
V895        V  0.48498749  0.72145238  0.41667361     1.35200
V896        V  0.01329133  0.77783980  0.41697582     1.35200
C897        C  0.05778054  0.75004261  0.41605312     0.79000
C898        C  0.44040432  0.74907572  0.41747784     0.79100
C899        C  0.99875331  0.75086541  0.37779856     0.78900
C900        C  0.00000016  0.74969084  0.45586072     0.78900
O901        O  0.26296870  0.52895422  0.44539177    -0.70200
O902        O  0.26292301  0.53065980  0.38723045    -0.70500
O903        O  0.21897218  0.52904888  0.41669090    -0.70300
O904        O  0.30686667  0.53049816  0.41604790    -0.70300
O905        O  0.27636777  0.97026645  0.41500311    -0.70300
O906        O  0.18871109  0.96932732  0.41575689    -0.70300
O907        O  0.23278040  0.97135113  0.38635457    -0.70200
O908        O  0.23244040  0.96818175  0.44454888    -0.70400
V909        V  0.26237867  0.52869135  0.41632043     1.35200
V910        V  0.23308683  0.97088248  0.41544111     1.35200
C911        C  0.24908053  0.50002630  0.45511106     0.79000
C912        C  0.24864396  0.50221978  0.37702292     0.79100
C913        C  0.18991537  0.50010471  0.41670068     0.78900
C914        C  0.30783583  0.50202098  0.41551582     0.78900
O915        O  0.26133786  0.77641164  0.44576430    -0.70200
O916        O  0.26505262  0.77885507  0.38769540    -0.70500
O917        O  0.21979878  0.77778042  0.41591206    -0.70300
O918        O  0.30659424  0.77748128  0.41760739    -0.70300
O919        O  0.27783912  0.72016180  0.41698458    -0.70300
O920        O  0.19091813  0.72045817  0.41498939    -0.70300
O921        O  0.23646737  0.72154031  0.38690501    -0.70200
O922        O  0.23232688  0.71909796  0.44510304    -0.70400
V923        V  0.26262925  0.77650736  0.41673310     1.35200
V924        V  0.23493198  0.72139748  0.41600281     1.35200
C925        C  0.24628201  0.74743033  0.45542318     0.79000
C926        C  0.25136858  0.75062198  0.37731278     0.79100
C927        C  0.19046982  0.74920914  0.41520085     0.78900
C928        C  0.30714540  0.74879603  0.41758205     0.78900
O929        O  0.47401166  0.98603151  0.05407481    -0.70200
O930        O  0.47524768  0.98365230  0.11220780    -0.70500
O931        O  0.46964676  0.52582451  0.08445207    -0.70300
O932        O  0.47466559  0.94140961  0.08218639    -0.70300
O933        O  0.03208695  0.96992282  0.08254850    -0.70300
O934        O  0.02701455  0.55444429  0.08325462    -0.70300
O935        O  0.02780374  0.51111573  0.11212009    -0.70200
O936        O  0.02658403  0.51118281  0.05394677    -0.70400
V937        V  0.47573166  0.98537033  0.08313790     1.35200
V938        V  0.02607988  0.51055979  0.08303097     1.35200
C939        C  0.99764317  0.49771366  0.04418236     0.79000
C940        C  0.99928989  0.49615920  0.12228743     0.79100
C941        C  0.99830517  0.55505195  0.08389527     0.78900
C942        C  0.00332018  0.94068575  0.08224427     0.78900
O943        O  0.02877770  0.76041836  0.05343968    -0.70200
O944        O  0.03021312  0.76299684  0.11168110    -0.70500
O945        O  0.02864775  0.71785410  0.08316818    -0.70300
O946        O  0.03030410  0.80563928  0.08191880    -0.70300
O947        O  0.47307132  0.77789462  0.08324306    -0.70300
O948        O  0.47137786  0.69008911  0.08264435    -0.70300
O949        O  0.47287860  0.73387420  0.11200624    -0.70200
O950        O  0.47151802  0.73437651  0.05386853    -0.70400
V951        V  0.02839246  0.76119272  0.08255544     1.35200
V952        V  0.47332476  0.73456111  0.08293629     1.35200
C953        C  0.50003546  0.74747203  0.04374307     0.79000
C954        C  0.50175484  0.74872940  0.12185503     0.79100
C955        C  0.99967733  0.68884946  0.08301170     0.78900
C956        C  0.00186308  0.80679517  0.08250923     0.78900
O957        O  0.28168042  0.96939402  0.08314232    -0.70200
O958        O  0.27672218  0.55370076  0.08237422    -0.70500
O959        O  0.27687731  0.51105106  0.11191822    -0.70300
O960        O  0.27599135  0.50909155  0.05375402    -0.70300
O961        O  0.22333620  0.98536272  0.05410585    -0.70300
O962        O  0.22542024  0.98386027  0.11223388    -0.70300
O963        O  0.21932638  0.52544268  0.08383820    -0.70200
O964        O  0.22419336  0.94096352  0.08247585    -0.70400
V965        V  0.27530964  0.50951959  0.08284484     1.35200
V966        V  0.22547855  0.98508357  0.08316299     1.35200
C967        C  0.25283927  0.94020203  0.08286695     0.79000
C968        C  0.24814598  0.55458424  0.08310706     0.79100
C969        C  0.24828559  0.49601168  0.12200332     0.78900
C970        C  0.24705065  0.49608401  0.04405901     0.78900
O971        O  0.22090777  0.73378103  0.05397969    -0.70200
O972        O  0.22242389  0.73315188  0.11213569    -0.70500
O973        O  0.22221727  0.77722320  0.08355572    -0.70300
O974        O  0.22103915  0.68957371  0.08262547    -0.70300
O975        O  0.27847002  0.71764093  0.08286243    -0.70300
O976        O  0.27964417  0.80526224  0.08235851    -0.70300
O977        O  0.27985839  0.76224918  0.11168788    -0.70200
O978        O  0.27831632  0.76077816  0.05355749    -0.70400
V979        V  0.22274488  0.73394759  0.08306185     1.35200
V980        V  0.27796195  0.76091829  0.08262203     1.35200
C981        C  0.24939466  0.74736112  0.04378085     0.79000
C982        C  0.25139198  0.74795269  0.12189963     0.79100
C983        C  0.25113999  0.80628431  0.08300586     0.78900
C984        C  0.24956912  0.68854912  0.08274273     0.78900
O985        O  0.02529991  0.55886860  0.91758974    -0.70200
O986        O  0.44033650  0.96955161  0.91615147    -0.70500
O987        O  0.48063506  0.51374408  0.94600177    -0.70300
O988        O  0.48243207  0.51707213  0.88780315    -0.70300
O989        O  0.01158657  0.98410174  0.88708565    -0.70300
O990        O  0.01432982  0.98538060  0.94520023    -0.70300
O991        O  0.46931093  0.94110834  0.91662462    -0.70200
O992        O  0.05382866  0.53003795  0.91597614    -0.70400
V993        V  0.48210677  0.51485226  0.91689588     1.35200
V994        V  0.01227785  0.98517733  0.91614143     1.35200
C995        C  0.05457612  0.55932386  0.91684348     0.79000
C996        C  0.43989302  0.94035298  0.91642844     0.79100
C997        C  0.99624809  0.50025020  0.95558594     0.78900
C998        C  0.99602654  0.50219470  0.87751226     0.78900
O999        O  0.05557698  0.77874843  0.91697596    -0.70200
O1000       O  0.46897919  0.69178342  0.91484508    -0.70500
O1001       O  0.01370953  0.73740362  0.88682210    -0.70300
O1002       O  0.01114927  0.73345161  0.94492780    -0.70300
O1003       O  0.48432779  0.76393908  0.94545222    -0.70300
O1004       O  0.48224201  0.76330835  0.88721792    -0.70300
O1005       O  0.43999911  0.72013630  0.91675452    -0.70200
O1006       O  0.02669595  0.80726990  0.91596436    -0.70400
V1007       V  0.01169640  0.73582439  0.91588337     1.35200
V1008       V  0.48393946  0.76317103  0.91633395     1.35200
C1009       C  0.05608086  0.80795979  0.91664885     0.79000
C1010       C  0.43956628  0.69097859  0.91576406     0.79100
C1011       C  0.99804085  0.75068131  0.87710604     0.78900
C1012       C  0.99773111  0.74848991  0.95512752     0.78900
O1013       O  0.23349252  0.51353434  0.94574707    -0.70200
O1014       O  0.23387081  0.51402626  0.88749755    -0.70500
O1015       O  0.19062464  0.96999646  0.91665007    -0.70300
O1016       O  0.27719105  0.55710277  0.91669787    -0.70300
O1017       O  0.30586784  0.52835867  0.91661541    -0.70300
O1018       O  0.21897370  0.94092518  0.91667034    -0.70300
O1019       O  0.26232914  0.98406411  0.88741332    -0.70200
O1020       O  0.26317018  0.98417336  0.94553471    -0.70400
V1021       V  0.23417404  0.51318479  0.91661365     1.35200
V1022       V  0.26219185  0.98471057  0.91649109     1.35200
C1023       C  0.24761793  0.49885130  0.95566533     0.79000
C1024       C  0.24829485  0.49969434  0.87754629     0.79100
C1025       C  0.18976845  0.94059793  0.91677800     0.78900
C1026       C  0.30649887  0.55766362  0.91660448     0.78900
O1027       O  0.27727951  0.80689681  0.91748417    -0.70200
O1028       O  0.18988721  0.72052511  0.91585314    -0.70500
O1029       O  0.23251205  0.76184025  0.94571706    -0.70300
O1030       O  0.23436231  0.76528428  0.88755988    -0.70300
O1031       O  0.26072681  0.73429821  0.88707431    -0.70300
O1032       O  0.26352826  0.73529835  0.94519057    -0.70300
O1033       O  0.21817374  0.69140539  0.91671554    -0.70200
O1034       O  0.30573422  0.77801296  0.91559338    -0.70400
V1035       V  0.23409028  0.76311271  0.91664099     1.35200
V1036       V  0.26146275  0.73525998  0.91614287     1.35200
C1037       C  0.30651651  0.80734159  0.91660610     0.79000
C1038       C  0.18897657  0.69112909  0.91631736     0.79100
C1039       C  0.24809570  0.74835916  0.95530617     0.78900
C1040       C  0.24755601  0.75005137  0.87732604     0.78900
O1041       O  0.01587301  0.52717772  0.55376900    -0.70200
O1042       O  0.01212640  0.52882297  0.61178019    -0.70500
O1043       O  0.05772735  0.52826919  0.58423400    -0.70300
O1044       O  0.47053187  0.52772139  0.58137560    -0.70300
O1045       O  0.44488770  0.96795272  0.58446816    -0.70300
O1046       O  0.03187149  0.96799476  0.58181950    -0.70300
O1047       O  0.49109041  0.96895740  0.61215685    -0.70200
O1048       O  0.48565467  0.96716939  0.55397184    -0.70400
V1049       V  0.01353479  0.52689455  0.58278124     1.35200
V1050       V  0.48893283  0.96909174  0.58306463     1.35200
C1051       C  0.99993422  0.49828481  0.54406688     0.79000
C1052       C  0.99957887  0.50044715  0.62194349     0.79100
C1053       C  0.05853825  0.49971251  0.58363280     0.78900
C1054       C  0.44133613  0.49908967  0.58267736     0.78900
O1055       O  0.44244615  0.71915594  0.58333874    -0.70200
O1056       O  0.03014638  0.72046696  0.58400732    -0.70500
O1057       O  0.48569806  0.71965533  0.61279080    -0.70300
O1058       O  0.48663969  0.71931416  0.55455026    -0.70300
O1059       O  0.01353999  0.77743245  0.55448475    -0.70300
O1060       O  0.01618462  0.77752699  0.61262655    -0.70300
O1061       O  0.05854106  0.77780424  0.58280927    -0.70200
O1062       O  0.47086775  0.77646442  0.58436626    -0.70400
V1063       V  0.48671180  0.72059295  0.58366571     1.35200
V1064       V  0.01430156  0.77635317  0.58356400     1.35200
C1065       C  0.44165283  0.74770590  0.58394167     0.79000
C1066       C  0.05930723  0.74923034  0.58335722     0.79100
C1067       C  0.00115414  0.74888734  0.62261431     0.78900
C1068       C  0.00024350  0.74875825  0.54452877     0.78900
O1069       O  0.19488782  0.96791852  0.58393242    -0.70200
O1070       O  0.28187630  0.96781553  0.58281071    -0.70500
O1071       O  0.24011212  0.96913912  0.61245816    -0.70300
O1072       O  0.23679375  0.96662651  0.55416441    -0.70300
O1073       O  0.26426918  0.52773374  0.55394730    -0.70300
O1074       O  0.26479187  0.52892927  0.61205862    -0.70300
O1075       O  0.30800507  0.52808721  0.58296952    -0.70200
O1076       O  0.22109363  0.52842756  0.58303813    -0.70400
V1077       V  0.23894475  0.96895599  0.58332135     1.35200
V1078       V  0.26399658  0.52717633  0.58299896     1.35200
C1079       C  0.19178036  0.49982127  0.58372200     0.79000
C1080       C  0.30846153  0.49933597  0.58279259     0.79100
C1081       C  0.25126679  0.50041256  0.62214332     0.78900
C1082       C  0.24927335  0.49896417  0.54407370     0.78900
O1083       O  0.26306919  0.77609304  0.55413668    -0.70200
O1084       O  0.26687724  0.77841312  0.61215433    -0.70500
O1085       O  0.30815640  0.77661427  0.58240214    -0.70300
O1086       O  0.22167064  0.77772214  0.58388972    -0.70300
O1087       O  0.19251840  0.72037611  0.58310534    -0.70300
O1088       O  0.27906109  0.71938906  0.58451019    -0.70300
O1089       O  0.23500900  0.72101499  0.61291603    -0.70200
O1090       O  0.23598817  0.71880312  0.55466972    -0.70400
V1091       V  0.26439675  0.77610184  0.58314811     1.35200
V1092       V  0.23626892  0.72096657  0.58379540     1.35200
C1093       C  0.24890311  0.74717021  0.54441451     0.79000
C1094       C  0.25096250  0.75015288  0.62238335     0.79100
C1095       C  0.30850234  0.74787508  0.58353133     0.78900
C1096       C  0.19224827  0.74920168  0.58345167     0.78900
O1097       O  0.47259921  0.94432948  0.74923076    -0.70200
O1098       O  0.05736382  0.53309125  0.74966273    -0.70500
O1099       O  0.01531665  0.98733241  0.77868943    -0.70300
O1100       O  0.01808004  0.98759134  0.72069024    -0.70300
O1101       O  0.48545123  0.51900735  0.72022853    -0.70300
O1102       O  0.48496067  0.51998517  0.77848183    -0.70300
O1103       O  0.02925345  0.56239837  0.74912713    -0.70200
O1104       O  0.44442768  0.97356675  0.74888139    -0.70400
V1105       V  0.01615485  0.98813824  0.74969545     1.35200
V1106       V  0.48574859  0.51898131  0.74935191     1.35200
C1107       C  0.44341545  0.94412412  0.74902823     0.79000
C1108       C  0.05838257  0.56256562  0.74931054     0.79100
C1109       C  0.99880519  0.50507620  0.78854546     0.78900
C1110       C  0.99951636  0.50371992  0.71043073     0.78900
O1111       O  0.44384485  0.72151868  0.74824846    -0.70200
O1112       O  0.03034665  0.80921762  0.75053593    -0.70500
O1113       O  0.48928785  0.76621763  0.72033982    -0.70300
O1114       O  0.48445977  0.76399275  0.77847848    -0.70300
O1115       O  0.01656298  0.73890510  0.77929334    -0.70300
O1116       O  0.01601143  0.73573340  0.72112312    -0.70300
O1117       O  0.05947349  0.78092933  0.74969997    -0.70200
O1118       O  0.47288296  0.69328015  0.75076969    -0.70400
V1119       V  0.48755880  0.76465168  0.74941735     1.35200
V1120       V  0.01567416  0.73782237  0.75019830     1.35200
C1121       C  0.44348156  0.69240578  0.74936833     0.79000
C1122       C  0.05981291  0.81006660  0.75023933     0.79100
C1123       C  0.00281973  0.75092547  0.71088697     0.78900
C1124       C  0.00017843  0.75165220  0.78877535     0.78900
O1125       O  0.19412124  0.97238083  0.74976565    -0.70200
O1126       O  0.28100687  0.55925576  0.74942355    -0.70500
O1127       O  0.23700694  0.51577465  0.72058408    -0.70300
O1128       O  0.23739193  0.51682301  0.77878342    -0.70300
O1129       O  0.26572634  0.98657208  0.77905664    -0.70300
O1130       O  0.26667588  0.98608596  0.72091954    -0.70300
O1131       O  0.30917535  0.53000815  0.74967673    -0.70200
O1132       O  0.22243040  0.94327157  0.74996020    -0.70400
V1133       V  0.23767391  0.51566405  0.74968852     1.35200
V1134       V  0.26569039  0.98698440  0.74998269     1.35200
C1135       C  0.19323786  0.94297204  0.74999428     0.79000
C1136       C  0.31015054  0.55946780  0.74943987     0.79100
C1137       C  0.25255811  0.00039180  0.71066029     0.78900
C1138       C  0.25168420  0.00145999  0.78880649     0.78900
O1139       O  0.22126036  0.69605769  0.74825900    -0.70200
O1140       O  0.30805463  0.78301367  0.75034118    -0.70500
O1141       O  0.26306721  0.73810651  0.77834392    -0.70300
O1142       O  0.26652369  0.74132790  0.72026043    -0.70300
O1143       O  0.23444918  0.76674469  0.72014469    -0.70300
O1144       O  0.23686744  0.76925506  0.77834331    -0.70300
O1145       O  0.27943449  0.81172793  0.74847471    -0.70200
O1146       O  0.19236043  0.72453276  0.74996188    -0.70400
V1147       V  0.26414871  0.74015790  0.74930222     1.35200
V1148       V  0.23634511  0.76757407  0.74923785     1.35200
C1149       C  0.19189038  0.69533585  0.74904640     0.79000
C1150       C  0.30875326  0.81228439  0.74939163     0.79100
C1151       C  0.24981716  0.75352653  0.78833656     0.78900
C1152       C  0.25056426  0.75406266  0.71033995     0.78900
C1153       C  0.37692970  0.65787062  0.74951006     0.25100
C1154       C  0.40948902  0.65830280  0.74912065    -0.23000
C1155       C  0.40907293  0.62580192  0.74857618     0.20000
C1156       C  0.37694703  0.59375273  0.74862305     0.25100
C1157       C  0.34438886  0.59336774  0.74920796    -0.22900
C1158       C  0.34487861  0.62590128  0.74957668     0.20000
F1159       F  0.31429968  0.62705810  0.75010019    -0.12900
F1160       F  0.37583245  0.68842489  0.74998334    -0.15200
F1161       F  0.37793004  0.56314170  0.74805743    -0.15200
F1162       F  0.43974130  0.62482085  0.74788594    -0.12900
C1163       C  0.15849862  0.87652881  0.75054727     0.25100
C1164       C  0.15900941  0.90906922  0.75030364    -0.23000
C1165       C  0.12645543  0.90871795  0.75037883     0.20000
C1166       C  0.09431252  0.87669747  0.75044361     0.25100
C1167       C  0.09385281  0.84416415  0.75045591    -0.22900
C1168       C  0.12641737  0.84457011  0.75060758     0.20000
F1169       F  0.12750002  0.81400234  0.75081800    -0.12900
F1170       F  0.18908272  0.87536265  0.75072836    -0.15200
F1171       F  0.06366906  0.87775592  0.75042850    -0.15200
F1172       F  0.12548354  0.93934780  0.75038170    -0.12900
C1173       C  0.37660968  0.91062710  0.74880370     0.25100
C1174       C  0.40891966  0.91042863  0.74903266    -0.23000
C1175       C  0.40781501  0.87762593  0.74936065     0.20000
C1176       C  0.37541120  0.84595815  0.74947842     0.25100
C1177       C  0.34310325  0.84611702  0.74929173    -0.22900
C1178       C  0.34416026  0.87891435  0.74894037     0.20000
F1179       F  0.31381453  0.88053306  0.74877946    -0.12900
F1180       F  0.37616103  0.94152419  0.74846619    -0.15200
F1181       F  0.37592369  0.81509684  0.74972943    -0.15200
F1182       F  0.43811228  0.87593231  0.74958404    -0.12900
C1183       C  0.12498929  0.59695539  0.75218932     0.25100
C1184       C  0.09267653  0.59641329  0.74908632    -0.23000
C1185       C  0.09347430  0.62871073  0.74574382     0.20000
C1186       C  0.12558963  0.66066447  0.74569138     0.25100
C1187       C  0.15786279  0.66126541  0.74892502    -0.22900
C1188       C  0.15716558  0.62896406  0.75208142     0.20000
F1189       F  0.18757778  0.62820723  0.75538798    -0.12900
F1190       F  0.12563014  0.56657095  0.75559083    -0.15200
F1191       F  0.12493053  0.69100488  0.74217324    -0.15200
F1192       F  0.06316494  0.62957375  0.74227305    -0.12900
C1193       C  0.28297123  0.76750008  0.65570227     0.25100
C1194       C  0.25084605  0.75130328  0.64483911    -0.23000
C1195       C  0.21863101  0.73686989  0.65554472     0.20000
C1196       C  0.21855799  0.73870592  0.67695030     0.25100
C1197       C  0.25066012  0.75388485  0.68785065    -0.22900
C1198       C  0.28286379  0.76822434  0.67712804     0.20000
F1199       F  0.31416794  0.78354543  0.68742104    -0.12900
F1200       F  0.31435382  0.78192789  0.64554750    -0.15200
F1201       F  0.18718259  0.72488445  0.68707304    -0.15200
F1202       F  0.18735730  0.72173638  0.64522210    -0.12900
C1203       C  0.25915245  0.97543745  0.67732201     0.25100
C1204       C  0.25310892  0.00009909  0.68791896    -0.23000
C1205       C  0.24667857  0.52608974  0.67695229     0.20000
C1206       C  0.24720732  0.52622289  0.65551922     0.25100
C1207       C  0.25174427  0.50088830  0.64473562    -0.22900
C1208       C  0.25940737  0.97492681  0.65588431     0.20000
F1209       F  0.26569560  0.95108266  0.64615875    -0.12900
F1210       F  0.26428868  0.95134612  0.68765910    -0.15200
F1211       F  0.24235168  0.55060100  0.64529819    -0.15200
F1212       F  0.24195475  0.55083376  0.68681903    -0.12900
C1213       C  0.37499748  0.71558186  0.58292587     0.25100
C1214       C  0.40752471  0.74760632  0.58407497    -0.23000
C1215       C  0.40705382  0.77960338  0.58524425     0.20000
C1216       C  0.37501390  0.77965252  0.58506008     0.25100
C1217       C  0.34248452  0.74766784  0.58376735    -0.22900
C1218       C  0.34291406  0.71563148  0.58277439     0.20000
F1219       F  0.31229045  0.68412177  0.58146667    -0.12900
F1220       F  0.37401714  0.68402527  0.58185810    -0.15200
F1221       F  0.37606019  0.81122610  0.58628538    -0.15200
F1222       F  0.43763026  0.81115158  0.58662561    -0.12900
C1223       C  0.09421424  0.71820397  0.57896273     0.25100
C1224       C  0.09339405  0.74940941  0.58325277    -0.23000
C1225       C  0.12546346  0.78066589  0.58747992     0.20000
C1226       C  0.15755758  0.78066733  0.58751654     0.25100
C1227       C  0.15833752  0.74939661  0.58330935    -0.22900
C1228       C  0.12626694  0.71820807  0.57896725     0.20000
F1229       F  0.12575590  0.68758097  0.57441525    -0.12900
F1230       F  0.06404069  0.68760340  0.57442322    -0.15200
F1231       F  0.18776277  0.81127862  0.59199354    -0.15200
F1232       F  0.12587259  0.81126168  0.59197216    -0.12900
C1233       C  0.47436435  0.72090430  0.65656541     0.25100
C1234       C  0.00172381  0.74913291  0.64528872    -0.23000
C1235       C  0.02968112  0.77737001  0.65597782     0.20000
C1236       C  0.03021486  0.77772863  0.67741640     0.25100
C1237       C  0.00278444  0.75008574  0.68845157    -0.22900
C1238       C  0.47494476  0.72150198  0.67801044     0.20000
F1239       F  0.44805538  0.69477498  0.68859716    -0.12900
F1240       F  0.44654853  0.69365966  0.64683406    -0.15200
F1241       F  0.05752399  0.80502659  0.68743675    -0.15200
F1242       F  0.05683620  0.80434406  0.64569691    -0.12900
C1243       C  0.37422627  0.52993870  0.57748526     0.25100
C1244       C  0.34238775  0.49919513  0.58271026    -0.23000
C1245       C  0.34584184  0.96501543  0.58694233     0.20000
C1246       C  0.37791824  0.96500541  0.58697469     0.25100
C1247       C  0.40728109  0.49904570  0.58261435    -0.22900
C1248       C  0.40626592  0.52987771  0.57743521     0.20000
F1249       F  0.43622570  0.56007460  0.57207300    -0.12900
F1250       F  0.37445192  0.56011441  0.57209374    -0.15200
F1251       F  0.37724113  0.93403248  0.59064379    -0.15200
F1252       F  0.31551357  0.93411278  0.59071352    -0.12900
C1253       C  0.12508276  0.53175319  0.58194697     0.25100
C1254       C  0.09267673  0.49987000  0.58403649    -0.23000
C1255       C  0.09565417  0.96469207  0.58451671     0.20000
C1256       C  0.12771825  0.96466196  0.58464119     0.25100
C1257       C  0.15775833  0.49992608  0.58411920    -0.22900
C1258       C  0.15719222  0.53178441  0.58198548     0.20000
F1259       F  0.18768842  0.56317075  0.57973558    -0.12900
F1260       F  0.12589723  0.56307295  0.57957480    -0.15200
F1261       F  0.12672509  0.93316198  0.58637086    -0.15200
F1262       F  0.06507665  0.93323994  0.58625962    -0.12900
C1263       C  0.51164057  0.97618558  0.65561207     0.25100
C1264       C  0.99932031  0.50112078  0.64445904    -0.23000
C1265       C  0.98958959  0.52314999  0.65483787     0.20000
C1266       C  0.98927709  0.52377736  0.67625827     0.25100
C1267       C  0.99934402  0.50277855  0.68770300    -0.22900
C1268       C  0.51194313  0.97724406  0.67704112     0.20000
F1269       F  0.51950934  0.95486613  0.68745600    -0.12900
F1270       F  0.51965460  0.95351323  0.64592150    -0.15200
F1271       F  0.97930684  0.54515550  0.68571241    -0.15200
F1272       F  0.97949820  0.54343792  0.64421181    -0.12900
C1273       C  0.26572729  0.73678003  0.84341507     0.25100
C1274       C  0.24786140  0.75081650  0.85455819    -0.23000
C1275       C  0.23066053  0.76586483  0.84366925     0.20000
C1276       C  0.23148713  0.76700721  0.82223084     0.25100
C1277       C  0.24934260  0.75292378  0.81110541    -0.22900
C1278       C  0.26650211  0.73786727  0.82201182     0.20000
F1279       F  0.28442500  0.72430298  0.81204356    -0.12900
F1280       F  0.28281535  0.72208476  0.85315504    -0.15200
F1281       F  0.21451537  0.78177858  0.81244111    -0.15200
F1282       F  0.21270007  0.77934088  0.85368599    -0.12900
C1283       C  0.24735199  0.02666988  0.84398917     0.25100
C1284       C  0.24899923  0.50030403  0.85485484    -0.23000
C1285       C  0.25334712  0.47500855  0.84381201     0.20000
C1286       C  0.25421156  0.47568532  0.82239284     0.25100
C1287       C  0.25079827  0.50169972  0.81151695    -0.22900
C1288       C  0.24832941  0.02737565  0.82253706     0.20000
F1289       F  0.24761184  0.05436799  0.81260576    -0.12900
F1290       F  0.24571688  0.05300764  0.85411994    -0.15200
F1291       F  0.25752661  0.45025037  0.81231638    -0.15200
F1292       F  0.25597135  0.44901162  0.85369490    -0.12900
C1293       C  0.40524492  0.62440261  0.91615565     0.25100
C1294       C  0.40554170  0.65684985  0.91582007    -0.23000
C1295       C  0.37289163  0.65627553  0.91574794     0.20000
C1296       C  0.34088178  0.62419818  0.91605100     0.25100
C1297       C  0.34057485  0.59174070  0.91639846    -0.22900
C1298       C  0.37321868  0.59230657  0.91644281     0.20000
F1299       F  0.37439949  0.56179468  0.91682418    -0.12900
F1300       F  0.43596322  0.62349414  0.91634130    -0.15200
F1301       F  0.31018510  0.62515791  0.91599815    -0.15200
F1302       F  0.37167568  0.68677148  0.91534212    -0.12900
C1303       C  0.09083149  0.87453749  0.91733956     0.25100
C1304       C  0.09022377  0.84194784  0.91700974    -0.23000
C1305       C  0.12272622  0.84220365  0.91699571     0.20000
C1306       C  0.15489130  0.87410521  0.91702152     0.25100
C1307       C  0.15552223  0.90670927  0.91704981    -0.22900
C1308       C  0.12303219  0.90647485  0.91736231     0.20000
F1309       F  0.12217420  0.93715735  0.91770844    -0.12900
F1310       F  0.06026790  0.87573411  0.91767833    -0.15200
F1311       F  0.18541971  0.87282860  0.91698985    -0.15200
F1312       F  0.12366034  0.81155414  0.91688701    -0.12900
C1313       C  0.02998810  0.76033139  0.84392176     0.25100
C1314       C  0.99857286  0.75153964  0.85453358    -0.23000
C1315       C  0.46779818  0.74312491  0.84345261     0.20000
C1316       C  0.46825930  0.74325107  0.82199270     0.25100
C1317       C  0.99959058  0.75191384  0.81135017    -0.22900
C1318       C  0.03047734  0.76046120  0.82249500     0.20000
F1319       F  0.06138446  0.76986954  0.81261394    -0.12900
F1320       F  0.06046370  0.76973838  0.85432267    -0.15200
F1321       F  0.43776658  0.73374011  0.81158529    -0.15200
F1322       F  0.43686669  0.73344118  0.85337756    -0.12900
C1323       C  0.37326844  0.90578949  0.91538611     0.25100
C1324       C  0.40582331  0.90625793  0.91653289    -0.23000
C1325       C  0.40534614  0.87376847  0.91780759     0.20000
C1326       C  0.37321961  0.84173925  0.91790594     0.25100
C1327       C  0.34068596  0.84131096  0.91670237    -0.22900
C1328       C  0.34118403  0.87379928  0.91550810     0.20000
F1329       F  0.31059441  0.87485821  0.91428026    -0.12900
F1330       F  0.37222120  0.93630883  0.91401052    -0.15200
F1331       F  0.37416558  0.81117013  0.91933465    -0.15200
F1332       F  0.43596266  0.87275682  0.91902240    -0.12900
C1333       C  0.12229351  0.65751828  0.91554429     0.25100
C1334       C  0.15459496  0.65739909  0.91647394    -0.23000
C1335       C  0.15357566  0.62467263  0.91767887     0.20000
C1336       C  0.12119993  0.59297860  0.91789926     0.25100
C1337       C  0.08890431  0.59309333  0.91689308    -0.22900
C1338       C  0.08990750  0.62581078  0.91577497     0.20000
F1339       F  0.05955664  0.62734494  0.91474424    -0.12900
F1340       F  0.12179185  0.68833587  0.91432725    -0.15200
F1341       F  0.12170525  0.56216916  0.91922149    -0.15200
F1342       F  0.18390387  0.62309115  0.91870324    -0.12900
C1343       C  0.48684947  0.52486722  0.84395489     0.25100
C1344       C  0.99651644  0.50301322  0.85475069    -0.23000
C1345       C  0.00956908  0.97954494  0.84347403     0.20000
C1346       C  0.01060492  0.98045072  0.82208740     0.25100
C1347       C  0.99810035  0.50460691  0.81130395    -0.22900
C1348       C  0.48752634  0.52561122  0.82250038     0.20000
F1349       F  0.47813936  0.54714106  0.81266331    -0.12900
F1350       F  0.47697096  0.54582863  0.85399922    -0.15200
F1351       F  0.02178428  0.96037632  0.81222017    -0.15200
F1352       F  0.01971140  0.95859014  0.85329830    -0.12900
C1353       C  0.28060451  0.76283407  0.98841743     0.25100
C1354       C  0.24836575  0.74798605  0.97777795    -0.23000
C1355       C  0.21642865  0.73301213  0.98871364     0.20000
C1356       C  0.21663169  0.73258284  0.01014604     0.25100
C1357       C  0.24898338  0.74762311  0.02102132    -0.22900
C1358       C  0.28101578  0.76302380  0.00983917     0.20000
F1359       F  0.31287659  0.77859955  0.01953596    -0.12900
F1360       F  0.31179055  0.77809404  0.97802439    -0.15200
F1361       F  0.18508772  0.71738659  0.02015061    -0.15200
F1362       F  0.18496341  0.71796943  0.97858741    -0.12900
C1363       C  0.28305792  0.90446583  0.07772379     0.25100
C1364       C  0.25252008  0.90600852  0.08303502    -0.23000
C1365       C  0.22159132  0.87445242  0.08850991     0.20000
C1366       C  0.22115011  0.84216835  0.08854079     0.25100
C1367       C  0.25163015  0.84057859  0.08309345    -0.22900
C1368       C  0.28261135  0.87217506  0.07772248     0.20000
F1369       F  0.31248442  0.87190605  0.07207416    -0.12900
F1370       F  0.31333991  0.93413035  0.07211447    -0.15200
F1371       F  0.19089998  0.81255927  0.09426619    -0.15200
F1372       F  0.19178962  0.87478251  0.09426352    -0.12900
C1373       C  0.21689945  0.62189363  0.08196500     0.25100
C1374       C  0.24915565  0.65423599  0.08279447    -0.23000
C1375       C  0.28107143  0.65338473  0.08374112     0.20000
C1376       C  0.28073247  0.62116447  0.08384726     0.25100
C1377       C  0.24848115  0.58883384  0.08304883    -0.22900
C1378       C  0.21656169  0.58966112  0.08210866     0.20000
F1379       F  0.18478587  0.55926998  0.08118953    -0.12900
F1380       F  0.18540905  0.62120091  0.08094117    -0.15200
F1381       F  0.31222934  0.62185770  0.08484061    -0.15200
F1382       F  0.31287250  0.68374525  0.08464471    -0.12900
C1383       C  0.25795395  0.97517522  0.01050832     0.25100
C1384       C  0.24676598  0.49656119  0.02160965    -0.23000
C1385       C  0.23928515  0.52015191  0.01116848     0.20000
C1386       C  0.23958825  0.52104633  0.98971946     0.25100
C1387       C  0.24714160  0.49804407  0.97839911    -0.22900
C1388       C  0.25703849  0.97495732  0.98909300     0.20000
F1389       F  0.26287309  0.95118378  0.97892700    -0.12900
F1390       F  0.26498241  0.95207887  0.02053631    -0.15200
F1391       F  0.23313907  0.54487430  0.98010893    -0.15200
F1392       F  0.23240976  0.54282608  0.02179360    -0.12900
C1393       C  0.47320990  0.75240906  0.98915631     0.25100
C1394       C  0.99819951  0.74824083  0.97781353    -0.23000
C1395       C  0.02409783  0.74409862  0.98840112     0.20000
C1396       C  0.02478650  0.74413467  0.00983111     0.25100
C1397       C  0.99922233  0.74763832  0.02111007    -0.22900
C1398       C  0.47354547  0.75179546  0.01059250     0.20000
F1399       F  0.44900304  0.75609332  0.02106150    -0.12900
F1400       F  0.44782706  0.75649286  0.97951678    -0.15200
F1401       F  0.05010433  0.74005172  0.01955151    -0.15200
F1402       F  0.04928308  0.74071388  0.97803755    -0.12900
C1403       C  0.03495908  0.90563246  0.08099949     0.25100
C1404       C  0.00306445  0.90648458  0.08206151    -0.23000
C1405       C  0.47088765  0.87420623  0.08301478     0.20000
C1406       C  0.47056427  0.84202261  0.08311707     0.25100
C1407       C  0.00235077  0.84110188  0.08227988    -0.22900
C1408       C  0.03460601  0.87338892  0.08110644     0.20000
F1409       F  0.06605040  0.87399707  0.08004526    -0.12900
F1410       F  0.06671627  0.93599544  0.07981469    -0.15200
F1411       F  0.43875925  0.81168303  0.08418089    -0.15200
F1412       F  0.43938060  0.87347330  0.08406776    -0.12900
C1413       C  0.46697104  0.62229123  0.08349750     0.25100
C1414       C  0.99916512  0.65453250  0.08332686    -0.23000
C1415       C  0.03110906  0.65370458  0.08357185     0.20000
C1416       C  0.03076366  0.62152514  0.08388992     0.25100
C1417       C  0.99848225  0.58919064  0.08395270    -0.22900
C1418       C  0.46659897  0.59004385  0.08384637     0.20000
F1419       F  0.43477800  0.55964047  0.08390766    -0.12900
F1420       F  0.43546892  0.62164765  0.08326427    -0.15200
F1421       F  0.06232530  0.62228291  0.08412106    -0.15200
F1422       F  0.06297531  0.68405320  0.08346710    -0.12900
C1423       C  0.02625533  0.50166901  0.01021513     0.25100
C1424       C  0.99727348  0.49853215  0.02150422    -0.23000
C1425       C  0.47258239  0.99755165  0.01063714     0.20000
C1426       C  0.47182754  0.99733728  0.98921176     0.25100
C1427       C  0.99663977  0.49989718  0.97821484    -0.22900
C1428       C  0.02580185  0.50205414  0.98879386     0.20000
F1429       F  0.05430080  0.50530604  0.97840473    -0.12900
F1430       F  0.05489757  0.50379373  0.01987179    -0.15200
F1431       F  0.44288673  0.99443022  0.97950459    -0.15200
F1432       F  0.44470588  0.99579916  0.02099110    -0.12900
C1433       C  0.23091095  0.71482734  0.48914656     0.25100
C1434       C  0.24558626  0.74694204  0.47819667    -0.23000
C1435       C  0.26034314  0.77888420  0.48929578     0.20000
C1436       C  0.26126306  0.77883171  0.51067709     0.25100
C1437       C  0.24736130  0.74682390  0.52165586    -0.22900
C1438       C  0.23175941  0.71476877  0.51060996     0.20000
F1439       F  0.21732633  0.68319318  0.52049231    -0.12900
F1440       F  0.21590305  0.68331173  0.47916284    -0.15200
F1441       F  0.27591582  0.81043743  0.52055011    -0.15200
F1442       F  0.27410585  0.81052604  0.47953804    -0.12900
C1443       C  0.22459121  0.96496988  0.48873054     0.25100
C1444       C  0.24914023  0.49953238  0.47785533    -0.23000
C1445       C  0.27068560  0.53071525  0.48898355     0.20000
C1446       C  0.27073947  0.53042886  0.51039417     0.25100
C1447       C  0.24920593  0.49895405  0.52130405    -0.22900
C1448       C  0.22591867  0.96450736  0.51019087     0.20000
F1449       F  0.20198684  0.93488637  0.52026670    -0.12900
F1450       F  0.19944326  0.93579752  0.47881880    -0.15200
F1451       F  0.29236668  0.56112139  0.52037911    -0.15200
F1452       F  0.29220884  0.56165492  0.47920651    -0.12900
C1453       C  0.99927737  0.77667592  0.48962365     0.25100
C1454       C  0.99995344  0.74935635  0.47853226    -0.23000
C1455       C  0.49904973  0.72026169  0.48937966     0.20000
C1456       C  0.49916198  0.72013073  0.51082809     0.25100
C1457       C  0.99998830  0.74884330  0.52185478    -0.22900
C1458       C  0.99932383  0.77643492  0.51106199     0.20000
F1459       F  0.99772228  0.80274671  0.52125005    -0.12900
F1460       F  0.99753219  0.80316022  0.47973424    -0.15200
F1461       F  0.50018857  0.69330046  0.52075912    -0.15200
F1462       F  0.49991869  0.69353053  0.47923084    -0.12900
C1463       C  0.37384802  0.71690736  0.41717886     0.25100
C1464       C  0.40632670  0.74900158  0.41790101    -0.23000
C1465       C  0.40580989  0.78098683  0.41896078     0.20000
C1466       C  0.37369059  0.78089382  0.41903901     0.25100
C1467       C  0.34120953  0.74881526  0.41805190    -0.22900
C1468       C  0.34173015  0.71681112  0.41724969     0.20000
F1469       F  0.31117233  0.68518629  0.41636299    -0.12900
F1470       F  0.37292264  0.68536472  0.41620416    -0.15200
F1471       F  0.37462932  0.81244106  0.42003380    -0.15200
F1472       F  0.43637993  0.81259148  0.41995906    -0.12900
C1473       C  0.12413608  0.78126196  0.41888243     0.25100
C1474       C  0.09174736  0.74987909  0.41549867    -0.23000
C1475       C  0.09223202  0.71835076  0.41158955     0.20000
C1476       C  0.12423631  0.71817987  0.41124847     0.25100
C1477       C  0.15657181  0.74949671  0.41488510    -0.22900
C1478       C  0.15610567  0.78107784  0.41856477     0.20000
F1479       F  0.18656204  0.81193318  0.42221005    -0.12900
F1480       F  0.12507037  0.81227676  0.42282089    -0.15200
F1481       F  0.12339958  0.68723851  0.40720186    -0.15200
F1482       F  0.06175483  0.68750118  0.40796447    -0.12900
C1483       C  0.46887728  0.96990763  0.48916200     0.25100
C1484       C  0.99825251  0.49866828  0.47823379    -0.23000
C1485       C  0.02702153  0.52563380  0.48903955     0.20000
C1486       C  0.02771620  0.52526269  0.51043348     0.25100
C1487       C  0.99962994  0.49793124  0.52144539    -0.22900
C1488       C  0.47022505  0.96927308  0.51058993     0.20000
F1489       F  0.44199700  0.94371856  0.52096604    -0.12900
F1490       F  0.43949414  0.94485132  0.47934253    -0.15200
F1491       F  0.05631702  0.55126687  0.52035238    -0.15200
F1492       F  0.05500452  0.55193022  0.47888036    -0.12900
C1493       C  0.37364774  0.97006709  0.40857639     0.25100
C1494       C  0.40704264  0.50219926  0.41561876    -0.23000
C1495       C  0.40605799  0.53313834  0.42053309     0.20000
C1496       C  0.37396228  0.53320890  0.42035391     0.25100
C1497       C  0.34205474  0.50232727  0.41527951    -0.22900
C1498       C  0.34148823  0.96991869  0.40840545     0.20000
F1499       F  0.31222899  0.94095158  0.40100804    -0.12900
F1500       F  0.37431778  0.94124636  0.40129646    -0.15200
F1501       F  0.37417139  0.56343079  0.42560241    -0.15200
F1502       F  0.43603814  0.56328446  0.42595886    -0.12900
C1503       C  0.09008940  0.96768526  0.41027510     0.25100
C1504       C  0.09051966  0.49914471  0.41768603    -0.23000
C1505       C  0.12188671  0.52902484  0.42448010     0.20000
C1506       C  0.15405795  0.52922266  0.42426037     0.25100
C1507       C  0.15565583  0.49955225  0.41724379    -0.22900
C1508       C  0.12222852  0.96770514  0.41008537     0.20000
F1509       F  0.12250846  0.93858179  0.40299679    -0.12900
F1510       F  0.06043476  0.93847938  0.40346595    -0.15200
F1511       F  0.18354901  0.55834823  0.43130011    -0.15200
F1512       F  0.12145333  0.55799743  0.43170576    -0.12900
C1513       C  0.28450285  0.76838553  0.17690396     0.25100
C1514       C  0.25256137  0.75168781  0.18807923    -0.23000
C1515       C  0.22032891  0.73348872  0.17725035     0.20000
C1516       C  0.22000856  0.73202155  0.15585861     0.25100
C1517       C  0.25190559  0.74884809  0.14465809    -0.22900
C1518       C  0.28418378  0.76698234  0.15547852     0.20000
F1519       F  0.31565539  0.78366232  0.14540449    -0.12900
F1520       F  0.31624609  0.78644073  0.18662369    -0.15200
F1521       F  0.18822093  0.71393517  0.14619303    -0.15200
F1522       F  0.18883858  0.71672065  0.18729571    -0.12900
C1523       C  0.26702803  0.78475544  0.32246269     0.25100
C1524       C  0.25267716  0.75313325  0.31129205    -0.23000
C1525       C  0.23849482  0.72080664  0.32169479     0.20000
C1526       C  0.23865396  0.71996977  0.34311276     0.25100
C1527       C  0.25242991  0.75158848  0.35454648    -0.22900
C1528       C  0.26673878  0.78406852  0.34391108     0.20000
F1529       F  0.28017782  0.81523431  0.35416956    -0.12900
F1530       F  0.28044205  0.81625837  0.31257429    -0.15200
F1531       F  0.22549003  0.68813154  0.35256348    -0.15200
F1532       F  0.22522058  0.69002688  0.31104439    -0.12900
C1533       C  0.28704291  0.91152548  0.24858191     0.25100
C1534       C  0.25501197  0.91217817  0.24937970    -0.23000
C1535       C  0.22285138  0.87976986  0.25006511     0.20000
C1536       C  0.22264683  0.84766465  0.25012381     0.25100
C1537       C  0.25462071  0.84692590  0.24943224    -0.22900
C1538       C  0.28683623  0.87931858  0.24859164     0.20000
F1539       F  0.31836915  0.88006626  0.24777245    -0.12900
F1540       F  0.31872942  0.94201566  0.24769367    -0.15200
F1541       F  0.19085870  0.81727683  0.25085635    -0.15200
F1542       F  0.19122641  0.87884655  0.25073955    -0.12900
C1543       C  0.27876379  0.62496698  0.25685959     0.25100
C1544       C  0.24881357  0.59414248  0.24955445    -0.23000
C1545       C  0.21946640  0.59644096  0.24253061     0.20000
C1546       C  0.22014902  0.62887682  0.24269788     0.25100
C1547       C  0.25020862  0.65975472  0.24993974    -0.22900
C1548       C  0.27944575  0.65733858  0.25705226     0.20000
F1549       F  0.30861011  0.68620265  0.26461563    -0.12900
F1550       F  0.30727241  0.62374387  0.26429060    -0.15200
F1551       F  0.19162082  0.63010221  0.23530074    -0.15200
F1552       F  0.19037413  0.56748171  0.23497927    -0.12900
C1553       C  0.22698256  0.97346391  0.15578018     0.25100
C1554       C  0.24861175  0.49663129  0.14466426    -0.23000
C1555       C  0.27725274  0.52408940  0.15532126     0.20000
C1556       C  0.27707478  0.52540205  0.17671837     0.25100
C1557       C  0.24837072  0.49918648  0.18791605    -0.22900
C1558       C  0.22700968  0.97472670  0.17718122     0.20000
F1559       F  0.19227581  0.44509692  0.18763903    -0.12900
F1560       F  0.19253655  0.44259850  0.14615325    -0.15200
F1561       F  0.31100705  0.05699637  0.18624499    -0.15200
F1562       F  0.31109815  0.05450336  0.14474608    -0.12900
C1563       C  0.27252420  0.53324076  0.34339462     0.25100
C1564       C  0.24857012  0.50263539  0.35431630    -0.23000
C1565       C  0.22590015  0.97137795  0.34262334     0.20000
C1566       C  0.22737044  0.97223480  0.32122341     0.25100
C1567       C  0.24887959  0.50268691  0.31105200    -0.22900
C1568       C  0.27287271  0.53311343  0.32194676     0.20000
F1569       F  0.29611528  0.56301211  0.31181344    -0.12900
F1570       F  0.29599993  0.56319112  0.35340827    -0.15200
F1571       F  0.20525926  0.94253794  0.31053589    -0.15200
F1572       F  0.20183198  0.94094385  0.35196740    -0.12900
C1573       C  0.03383529  0.76860491  0.15566056     0.25100
C1574       C  0.00191405  0.74921047  0.14465215    -0.23000
C1575       C  0.46996253  0.73082379  0.15567320     0.20000
C1576       C  0.46980139  0.73192012  0.17707607     0.25100
C1577       C  0.00169854  0.75143618  0.18813317    -0.22900
C1578       C  0.03373248  0.76967272  0.17711647     0.20000
F1579       F  0.06513797  0.78885132  0.18702677    -0.12900
F1580       F  0.06532380  0.78690903  0.14573674    -0.15200
F1581       F  0.43829266  0.71317994  0.18692128    -0.15200
F1582       F  0.43856761  0.71125580  0.14581946    -0.12900
C1583       C  0.46985923  0.72375001  0.32255435     0.25100
C1584       C  0.99898379  0.75157903  0.31178267    -0.23000
C1585       C  0.02753992  0.77836277  0.32286529     0.20000
C1586       C  0.02725867  0.77831038  0.34430002     0.25100
C1587       C  0.99865656  0.75121070  0.35512924    -0.22900
C1588       C  0.46982473  0.72321409  0.34401275     0.20000
F1589       F  0.44161144  0.69674953  0.35392331    -0.12900
F1590       F  0.44201692  0.69731726  0.31236346    -0.15200
F1591       F  0.05546680  0.80437841  0.35445021    -0.15200
F1592       F  0.05562061  0.80500626  0.31297322    -0.12900
C1593       C  0.03281059  0.87735775  0.25262993     0.25100
C1594       C  0.00070190  0.84508537  0.25069781    -0.23000
C1595       C  0.46863614  0.84586977  0.24934787     0.20000
C1596       C  0.46898583  0.87810899  0.24948503     0.25100
C1597       C  0.50117654  0.91038667  0.25116677    -0.22900
C1598       C  0.03310399  0.90954615  0.25283046     0.20000
F1599       F  0.06475708  0.93985922  0.25474312    -0.12900
F1600       F  0.06420449  0.87801505  0.25444482    -0.15200
F1601       F  0.43759951  0.87750272  0.24778443    -0.15200
F1602       F  0.43695438  0.81555071  0.24756298    -0.12900
C1603       C  0.03252314  0.62747142  0.24837635     0.25100
C1604       C  0.50038083  0.59497850  0.24829556    -0.23000
C1605       C  0.46821234  0.59538373  0.24818159     0.20000
C1606       C  0.46814675  0.62737733  0.24848991     0.25100
C1607       C  0.00038655  0.65996091  0.24904675    -0.22900
C1608       C  0.03252799  0.65950965  0.24872140     0.20000
F1609       F  0.06420749  0.69007331  0.24875392    -0.12900
F1610       F  0.06420937  0.62849580  0.24810085    -0.15200
F1611       F  0.43642371  0.62628082  0.24856132    -0.15200
F1612       F  0.43655650  0.56480641  0.24784791    -0.12900
C1613       C  0.03083621  0.51983044  0.15583111     0.25100
C1614       C  0.99975287  0.49650115  0.14504503    -0.23000
C1615       C  0.47328868  0.97653954  0.15585640     0.20000
C1616       C  0.47314696  0.97759189  0.17726403     0.25100
C1617       C  0.00009139  0.49863541  0.18845912    -0.22900
C1618       C  0.03100794  0.52085734  0.17725982     0.20000
F1619       F  0.06140372  0.54423459  0.18697718    -0.12900
F1620       F  0.06105854  0.54234717  0.14569272    -0.15200
F1621       F  0.44250007  0.95576070  0.18725633    -0.15200
F1622       F  0.44274322  0.95381466  0.14603541    -0.12900
C1623       C  0.02805215  0.53140760  0.32289770     0.25100
C1624       C  0.00019709  0.50387361  0.31182372    -0.23000
C1625       C  0.47178958  0.97551279  0.32204442     0.20000
C1626       C  0.47128279  0.97445956  0.34346180     0.25100
C1627       C  0.00044096  0.50252252  0.35507182    -0.22900
C1628       C  0.02802618  0.53088621  0.34433980     0.20000
F1629       F  0.05538909  0.55778241  0.35457189    -0.12900
F1630       F  0.05504770  0.55915591  0.31299304    -0.15200
F1631       F  0.44349981  0.94699407  0.35305988    -0.15200
F1632       F  0.44489724  0.94857720  0.31156227    -0.12900
O1633       O  0.52878215  0.47322334  0.25157615    -0.70200
O1634       O  0.53166570  0.06144687  0.24928227    -0.70500
O1635       O  0.53015407  0.01870589  0.27935309    -0.70300
O1636       O  0.53212637  0.01650714  0.22117906    -0.70300
O1637       O  0.97134358  0.48674309  0.22111998    -0.70300
O1638       O  0.97140048  0.48927763  0.27926657    -0.70300
O1639       O  0.97403780  0.03299690  0.24913532    -0.70200
O1640       O  0.97110214  0.44458051  0.25108741    -0.70400
V1641       V  0.53002897  0.01709984  0.25025599     1.35200
V1642       V  0.97246504  0.48868884  0.25019853     1.35200
C1643       C  0.99975888  0.44386686  0.25160646     0.79000
C1644       C  0.00284362  0.06218555  0.24909229     0.79100
C1645       C  0.50102475  0.00409333  0.28892786     0.78900
C1646       C  0.50369423  0.00208496  0.21089542     0.78900
O1647       O  0.53121298  0.22487847  0.25114014    -0.70200
O1648       O  0.52959516  0.31109616  0.25146406    -0.70500
O1649       O  0.52984691  0.26768897  0.28038953    -0.70300
O1650       O  0.53101038  0.26844186  0.22213602    -0.70300
O1651       O  0.97324090  0.23924397  0.22180287    -0.70300
O1652       O  0.97200234  0.23754290  0.27997745    -0.70300
O1653       O  0.97182413  0.28159021  0.25130722    -0.70200
O1654       O  0.97342864  0.19541612  0.25048608    -0.70400
V1655       V  0.52931490  0.26747147  0.25127488     1.35200
V1656       V  0.97373858  0.23903521  0.25089427     1.35200
C1657       C  0.50272885  0.19541416  0.25059967     0.79000
C1658       C  0.50062439  0.31124907  0.25168351     0.79100
C1659       C  0.50089954  0.25252434  0.29014057     0.78900
C1660       C  0.50243864  0.25390720  0.21197370     0.78900
O1661       O  0.77761049  0.47272651  0.25005067    -0.70200
O1662       O  0.78221778  0.06206322  0.24945498    -0.70500
O1663       O  0.78207407  0.01908086  0.27879347    -0.70300
O1664       O  0.78343044  0.01876114  0.22054138    -0.70300
O1665       O  0.71974558  0.48671871  0.22046814    -0.70300
O1666       O  0.71996452  0.48727641  0.27860053    -0.70300
O1667       O  0.72473316  0.03287805  0.24919891    -0.70200
O1668       O  0.72016912  0.44377395  0.24963988    -0.70400
V1669       V  0.78167167  0.01830087  0.24965409     1.35200
V1670       V  0.72100349  0.48774097  0.24953336     1.35200
C1671       C  0.74901959  0.44335212  0.24986572     0.79000
C1672       C  0.75330613  0.06230756  0.24942972     0.79100
C1673       C  0.75296945  0.00388471  0.28838116     0.78900
C1674       C  0.75483521  0.00388976  0.21041459     0.78900
O1675       O  0.78056177  0.22409347  0.25232838    -0.70200
O1676       O  0.77948209  0.31058114  0.25006215    -0.70500
O1677       O  0.77998755  0.26923992  0.28028708    -0.70300
O1678       O  0.78033098  0.26578455  0.22214727    -0.70300
O1679       O  0.72293301  0.23914463  0.22200201    -0.70300
O1680       O  0.72249352  0.23701770  0.28019358    -0.70300
O1681       O  0.72210438  0.28142437  0.25162603    -0.70200
O1682       O  0.72318066  0.19499169  0.25043893    -0.70400
V1683       V  0.77900362  0.26685724  0.25121894     1.35200
V1684       V  0.72376403  0.23874092  0.25108541     1.35200
C1685       C  0.75201886  0.19467872  0.25131864     0.79000
C1686       C  0.75056956  0.31085030  0.25067737     0.79100
C1687       C  0.75121607  0.25317008  0.29009835     0.78900
C1688       C  0.75169188  0.25223685  0.21207825     0.78900
O1689       O  0.98290297  0.47083969  0.44542965    -0.70200
O1690       O  0.98502787  0.47283515  0.38730692    -0.70500
O1691       O  0.52733954  0.47128988  0.41685722    -0.70300
O1692       O  0.94090476  0.47264739  0.41589415    -0.70300
O1693       O  0.96806326  0.02800651  0.41680050    -0.70300
O1694       O  0.55482106  0.02724001  0.41704514    -0.70300
O1695       O  0.51245229  0.02902289  0.38781360    -0.70200
O1696       O  0.51097038  0.02659534  0.44589983    -0.70400
V1697       V  0.98459291  0.47295450  0.41636512     1.35200
V1698       V  0.51097159  0.02665239  0.41685978     1.35200
C1699       C  0.49620966  0.99751835  0.45544398     0.79000
C1700       C  0.49808843  0.00074778  0.37747190     0.79100
C1701       C  0.55507101  0.99839175  0.41672614     0.78900
C1702       C  0.93863315  0.99947222  0.41618664     0.78900
O1703       O  0.52859867  0.22179121  0.41610230    -0.70200
O1704       O  0.94150134  0.22131285  0.41879106    -0.70500
O1705       O  0.98343747  0.22263068  0.38839660    -0.70300
O1706       O  0.98669834  0.22042933  0.44648950    -0.70300
O1707       O  0.51246024  0.27768467  0.44723050    -0.70300
O1708       O  0.51471096  0.27993287  0.38904067    -0.70300
O1709       O  0.96989397  0.27863041  0.41785310    -0.70200
O1710       O  0.55718294  0.27898772  0.41845666    -0.70400
V1711       V  0.98559783  0.22264869  0.41744459     1.35200
V1712       V  0.51299587  0.27771933  0.41813092     1.35200
C1713       C  0.55784025  0.25041366  0.41707810     0.79000
C1714       C  0.94069772  0.24986193  0.41846861     0.79100
C1715       C  0.49916247  0.25158183  0.37878863     0.78900
C1716       C  0.49965993  0.24866490  0.45680620     0.78900
O1717       O  0.76092210  0.02578132  0.44553149    -0.70200
O1718       O  0.76146251  0.02893483  0.38737374    -0.70500
O1719       O  0.71727395  0.02699060  0.41679973    -0.70300
O1720       O  0.80476460  0.02777052  0.41619497    -0.70300
O1721       O  0.77864260  0.47305807  0.41524006    -0.70300
O1722       O  0.69092554  0.47173714  0.41629247    -0.70300
O1723       O  0.73436971  0.47325591  0.38673639    -0.70200
O1724       O  0.73514854  0.47160881  0.44487609    -0.70400
V1725       V  0.76048306  0.02625133  0.41645014     1.35200
V1726       V  0.73533967  0.47353379  0.41579479     1.35200
C1727       C  0.74708866  0.99661497  0.45501192     0.79000
C1728       C  0.74755534  0.00077318  0.37690611     0.79100
C1729       C  0.68807518  0.99821508  0.41639257     0.78900
C1730       C  0.80556527  0.99923152  0.41552089     0.78900
O1731       O  0.76135594  0.27572183  0.44721735    -0.70200
O1732       O  0.76455239  0.27902258  0.38905786    -0.70500
O1733       O  0.71969742  0.27773881  0.41764865    -0.70300
O1734       O  0.80634033  0.27726983  0.41868618    -0.70300
O1735       O  0.77766645  0.21997006  0.41755447    -0.70300
O1736       O  0.69073800  0.22042811  0.41670252    -0.70300
O1737       O  0.73559960  0.22170855  0.38809525    -0.70200
O1738       O  0.73274915  0.21836136  0.44620333    -0.70400
V1739       V  0.76242897  0.27632089  0.41814237     1.35200
V1740       V  0.73471612  0.22120989  0.41715264     1.35200
C1741       C  0.74660007  0.24650104  0.45666250     0.79000
C1742       C  0.75060501  0.25084784  0.37859312     0.79100
C1743       C  0.69034656  0.24922348  0.41700367     0.78900
C1744       C  0.80695126  0.24863404  0.41826730     0.78900
O1745       O  0.96908249  0.48356981  0.05431278    -0.70200
O1746       O  0.97035531  0.48122932  0.11248717    -0.70500
O1747       O  0.97453244  0.02818778  0.08418783    -0.70300
O1748       O  0.96997000  0.43892536  0.08240714    -0.70300
O1749       O  0.52744637  0.46782501  0.08278764    -0.70300
O1750       O  0.53192202  0.05700211  0.08310110    -0.70300
O1751       O  0.53269277  0.01340734  0.11187780    -0.70200
O1752       O  0.53150998  0.01356210  0.05366794    -0.70400
V1753       V  0.97083968  0.48288751  0.08338850     1.35200
V1754       V  0.53096825  0.01295032  0.08278402     1.35200
C1755       C  0.50254292  0.99995228  0.04391845     0.79000
C1756       C  0.50416286  0.99836931  0.12202542     0.79100
C1757       C  0.50313014  0.05750459  0.08391156     0.78900
C1758       C  0.49884026  0.43851040  0.08235756     0.78900
O1759       O  0.52938393  0.26058869  0.05442751    -0.70200
O1760       O  0.53075357  0.26496468  0.11265080    -0.70500
O1761       O  0.53043286  0.21948280  0.08474207    -0.70300
O1762       O  0.52959361  0.30602912  0.08225919    -0.70300
O1763       O  0.97216788  0.27698469  0.08371712    -0.70300
O1764       O  0.97298863  0.19044028  0.08412686    -0.70300
O1765       O  0.97325619  0.23436716  0.11303103    -0.70200
O1766       O  0.97189890  0.23338639  0.05486263    -0.70400
V1767       V  0.52895189  0.26221028  0.08353513     1.35200
V1768       V  0.97369288  0.23431415  0.08393887     1.35200
C1769       C  0.00043884  0.24688214  0.04473526     0.79000
C1770       C  0.00212462  0.25007903  0.12286165     0.79100
C1771       C  0.50185450  0.19009031  0.08467984     0.78900
C1772       C  0.50071123  0.30636556  0.08262432     0.78900
O1773       O  0.77618610  0.46655922  0.08333970    -0.70200
O1774       O  0.78192903  0.05672844  0.08201727    -0.70500
O1775       O  0.78288885  0.01458153  0.11166653    -0.70300
O1776       O  0.78108589  0.01178725  0.05353138    -0.70300
O1777       O  0.71847008  0.48284947  0.05406957    -0.70300
O1778       O  0.71952878  0.48091551  0.11222699    -0.70300
O1779       O  0.72456955  0.02808375  0.08394182    -0.70200
O1780       O  0.71869733  0.43811579  0.08250730    -0.70400
V1781       V  0.78083860  0.01259789  0.08260655     1.35200
V1782       V  0.72013138  0.48237972  0.08315350     1.35200
C1783       C  0.74738220  0.43740283  0.08296221     0.79000
C1784       C  0.75319822  0.05733455  0.08298730     0.79100
C1785       C  0.75446167  0.99941055  0.12188898     0.78900
C1786       C  0.75199581  0.99869780  0.04399858     0.78900
O1787       O  0.72064052  0.23267124  0.05511485    -0.70200
O1788       O  0.72216993  0.23294942  0.11328044    -0.70500
O1789       O  0.72037824  0.27572794  0.08439913    -0.70300
O1790       O  0.72237086  0.18972385  0.08401324    -0.70300
O1791       O  0.77980037  0.21920642  0.08397958    -0.70300
O1792       O  0.77782662  0.30521979  0.08350128    -0.70300
O1793       O  0.77958754  0.26305819  0.11287689    -0.70200
O1794       O  0.77807741  0.26157712  0.05468971    -0.70400
V1795       V  0.72250062  0.23330042  0.08420283     1.35200
V1796       V  0.77771925  0.26167961  0.08377765     1.35200
C1797       C  0.74912464  0.24716398  0.04490829     0.79000
C1798       C  0.75109258  0.24837994  0.12306980     0.79100
C1799       C  0.74879380  0.30523293  0.08388302     0.78900
C1800       C  0.75139511  0.18966222  0.08392859     0.78900
O1801       O  0.52714509  0.05672156  0.91694119    -0.70200
O1802       O  0.93796384  0.47180658  0.91607631    -0.70500
O1803       O  0.98366623  0.01221041  0.94563040    -0.70300
O1804       O  0.98404505  0.01396851  0.88742912    -0.70300
O1805       O  0.50950331  0.48675071  0.88737033    -0.70300
O1806       O  0.51139929  0.48702145  0.94548847    -0.70300
O1807       O  0.96691902  0.44334941  0.91670204    -0.70200
O1808       O  0.55608642  0.02828295  0.91552525    -0.70400
V1809       V  0.98441073  0.01253197  0.91653067     1.35200
V1810       V  0.50980815  0.48733851  0.91643354     1.35200
C1811       C  0.55653037  0.05745096  0.91630690     0.79000
C1812       C  0.93752198  0.44258193  0.91638080     0.79100
C1813       C  0.49926465  0.99887457  0.95529784     0.78900
C1814       C  0.49766281  0.99940838  0.87722932     0.78900
O1815       O  0.55583871  0.27870508  0.91757463    -0.70200
O1816       O  0.96963242  0.19144909  0.91576699    -0.70500
O1817       O  0.51370524  0.23728238  0.88760421    -0.70300
O1818       O  0.51212688  0.23309116  0.94572944    -0.70300
O1819       O  0.98430033  0.26285289  0.94658619    -0.70300
O1820       O  0.98218717  0.26338324  0.88839766    -0.70300
O1821       O  0.94025457  0.21939473  0.91775331    -0.70200
O1822       O  0.52654115  0.30683174  0.91720992    -0.70400
V1823       V  0.51218455  0.23557071  0.91667077     1.35200
V1824       V  0.98391246  0.26264979  0.91748585     1.35200
C1825       C  0.55605846  0.30777886  0.91743533     0.79000
C1826       C  0.94010869  0.19038493  0.91671461     0.79100
C1827       C  0.49809976  0.25082684  0.87807543     0.78900
C1828       C  0.49825296  0.24752487  0.95608533     0.78900
O1829       O  0.73461032  0.01311607  0.94589209    -0.70200
O1830       O  0.73463104  0.01386355  0.88764035    -0.70500
O1831       O  0.68989370  0.47016161  0.91652273    -0.70300
O1832       O  0.77814219  0.05655601  0.91691268    -0.70300
O1833       O  0.80664784  0.02764457  0.91641915    -0.70300
O1834       O  0.71852610  0.44137126  0.91653255    -0.70300
O1835       O  0.76221295  0.48481864  0.88749860    -0.70200
O1836       O  0.76200988  0.48452709  0.94563798    -0.70400
V1837       V  0.73504837  0.01282083  0.91676923     1.35200
V1838       V  0.76158706  0.48530402  0.91657266     1.35200
C1839       C  0.74915419  0.99874780  0.95570528     0.79000
C1840       C  0.74866428  0.99922831  0.87760595     0.79100
C1841       C  0.68922889  0.44085436  0.91659921     0.78900
C1842       C  0.80737792  0.05698791  0.91671083     0.78900
O1843       O  0.77590092  0.30706156  0.91854702    -0.70200
O1844       O  0.68978333  0.21953778  0.91660518    -0.70500
O1845       O  0.73137476  0.26127059  0.94668497    -0.70300
O1846       O  0.73401527  0.26488185  0.88853137    -0.70300
O1847       O  0.76097711  0.23446485  0.88820199    -0.70300
O1848       O  0.76398509  0.23643926  0.94632658    -0.70300
O1849       O  0.71911255  0.19149224  0.91801226    -0.70200
O1850       O  0.80546221  0.27930401  0.91650056    -0.70400
V1851       V  0.73336549  0.26268492  0.91759408     1.35200
V1852       V  0.76180846  0.23591696  0.91727580     1.35200
C1853       C  0.80547988  0.30827555  0.91746353     0.79000
C1854       C  0.68958269  0.19049917  0.91725345     0.79100
C1855       C  0.74769619  0.24866373  0.95637017     0.78900
C1856       C  0.74747558  0.24982108  0.87837368     0.78900
O1857       O  0.51770970  0.02447229  0.55350718    -0.70200
O1858       O  0.51606644  0.02626911  0.61151314    -0.70500
O1859       O  0.56052674  0.02538722  0.58334993    -0.70300
O1860       O  0.97330336  0.02497722  0.58178916    -0.70300
O1861       O  0.94203752  0.47044757  0.58400887    -0.70300
O1862       O  0.52930463  0.47090957  0.58276922    -0.70300
O1863       O  0.98729338  0.47150438  0.61235759    -0.70200
O1864       O  0.98410480  0.46985646  0.55421299    -0.70400
V1865       V  0.51640856  0.02421710  0.58252151     1.35200
V1866       V  0.98623140  0.47175966  0.58328660     1.35200
C1867       C  0.50116316  0.99563372  0.54381717     0.79000
C1868       C  0.50378451  0.99797877  0.62172667     0.79100
C1869       C  0.56117849  0.99675827  0.58258387     0.78900
C1870       C  0.94412249  0.99638580  0.58334440     0.78900
O1871       O  0.94254649  0.21818703  0.58339409    -0.70200
O1872       O  0.52940490  0.21776109  0.58552547    -0.70500
O1873       O  0.98433605  0.21805738  0.61364703    -0.70300
O1874       O  0.98754003  0.21785922  0.55536451    -0.70300
O1875       O  0.51382680  0.27515032  0.55542920    -0.70300
O1876       O  0.51562780  0.27532372  0.61351108    -0.70300
O1877       O  0.55813358  0.27507262  0.58400395    -0.70200
O1878       O  0.97139884  0.27546639  0.58489811    -0.70400
V1879       V  0.98649145  0.21902581  0.58449642     1.35200
V1880       V  0.51415843  0.27409205  0.58447005     1.35200
C1881       C  0.94206185  0.24690544  0.58397175     0.79000
C1882       C  0.55868321  0.24640573  0.58484653     0.79100
C1883       C  0.50001771  0.24676253  0.62353416     0.78900
C1884       C  0.50063884  0.24651346  0.54545773     0.78900
O1885       O  0.69219007  0.47085215  0.58401050    -0.70200
O1886       O  0.77903564  0.47044623  0.58270784    -0.70500
O1887       O  0.73704530  0.47114866  0.61241319    -0.70300
O1888       O  0.73441895  0.47022094  0.55416589    -0.70300
O1889       O  0.76724361  0.02400550  0.55357491    -0.70300
O1890       O  0.76674351  0.02638234  0.61171300    -0.70300
O1891       O  0.81050875  0.02506579  0.58320097    -0.70200
O1892       O  0.72354873  0.02517432  0.58210417    -0.70400
V1893       V  0.73618926  0.47175692  0.58330791     1.35200
V1894       V  0.76648089  0.02403915  0.58264806     1.35200
C1895       C  0.69426463  0.99657296  0.58300117     0.79000
C1896       C  0.81107510  0.99637511  0.58317283     0.79100
C1897       C  0.75352607  0.99809408  0.62201228     0.78900
C1898       C  0.75181471  0.99505049  0.54388325     0.78900
O1899       O  0.76298537  0.27465896  0.55490758    -0.70200
O1900       O  0.76687940  0.27803387  0.61288164    -0.70500
O1901       O  0.80857186  0.27629577  0.58315236    -0.70300
O1902       O  0.72134515  0.27608456  0.58454921    -0.70300
O1903       O  0.69282432  0.21872437  0.58451764    -0.70300
O1904       O  0.77997486  0.21907122  0.58519934    -0.70300
O1905       O  0.73656519  0.22067759  0.61398511    -0.70200
O1906       O  0.73600535  0.21733139  0.55574436    -0.70400
V1907       V  0.76443482  0.27515876  0.58388931     1.35200
V1908       V  0.73695003  0.22003883  0.58486125     1.35200
C1909       C  0.74878856  0.24556557  0.54537605     0.79000
C1910       C  0.75170385  0.24998007  0.62336271     0.79100
C1911       C  0.80922819  0.24767987  0.58403729     0.78900
C1912       C  0.69212117  0.24732898  0.58455694     0.78900
O1913       O  0.96947118  0.44699634  0.74975690    -0.70200
O1914       O  0.56041300  0.03112591  0.75017288    -0.70500
O1915       O  0.51293390  0.49053432  0.77884769    -0.70300
O1916       O  0.51350795  0.48963783  0.72078929    -0.70300
O1917       O  0.98900026  0.01595584  0.71980763    -0.70300
O1918       O  0.98785394  0.01727009  0.77805206    -0.70300
O1919       O  0.53173424  0.05987636  0.74875195    -0.70200
O1920       O  0.94131096  0.47624260  0.74925941    -0.70400
V1921       V  0.51272294  0.49075125  0.74981242     1.35200
V1922       V  0.98893048  0.01612079  0.74892741     1.35200
C1923       C  0.94032588  0.44678043  0.74946376     0.79000
C1924       C  0.56098487  0.06041175  0.74949126     0.79100
C1925       C  0.50098783  0.00230619  0.78829608     0.78900
C1926       C  0.50360835  0.00147398  0.71022876     0.78900
O1927       O  0.94313364  0.22147469  0.74965972    -0.70200
O1928       O  0.52954499  0.30941563  0.75087045    -0.70500
O1929       O  0.98752121  0.26549448  0.72120103    -0.70300
O1930       O  0.98430759  0.26509136  0.77936559    -0.70300
O1931       O  0.51645014  0.23956151  0.78026232    -0.70300
O1932       O  0.51558982  0.23573955  0.72209919    -0.70300
O1933       O  0.55901380  0.28146071  0.75052722    -0.70200
O1934       O  0.97266862  0.19369735  0.75184780    -0.70400
V1935       V  0.98665339  0.26486159  0.75029766     1.35200
V1936       V  0.51543307  0.23816629  0.75117043     1.35200
C1937       C  0.94311525  0.19251757  0.75065879     0.79000
C1938       C  0.55912990  0.31049452  0.75076076     0.79100
C1939       C  0.50161409  0.25011761  0.71180824     0.78900
C1940       C  0.50030501  0.25261533  0.78970486     0.78900
O1941       O  0.69332728  0.47313922  0.74997762    -0.70200
O1942       O  0.78141427  0.05850498  0.74933352    -0.70500
O1943       O  0.73780434  0.01470014  0.72041868    -0.70300
O1944       O  0.73785950  0.01619132  0.77871307    -0.70300
O1945       O  0.76549417  0.48742339  0.77897081    -0.70300
O1946       O  0.76526547  0.48650551  0.72082961    -0.70300
O1947       O  0.80989715  0.02957886  0.75011541    -0.70200
O1948       O  0.72157212  0.44396822  0.75015554    -0.70400
V1949       V  0.73829005  0.01482136  0.74958060     1.35200
V1950       V  0.76488406  0.48761320  0.74990321     1.35200
C1951       C  0.69239581  0.44369931  0.75026707     0.79000
C1952       C  0.81064152  0.05892810  0.74972217     0.79100
C1953       C  0.75124349  0.50108806  0.71074293     0.78900
C1954       C  0.75139560  0.50215011  0.78882778     0.78900
O1955       O  0.72189235  0.19627594  0.75033686    -0.70200
O1956       O  0.80743017  0.28449665  0.75017667    -0.70500
O1957       O  0.76482654  0.24027160  0.77931113    -0.70300
O1958       O  0.76452131  0.24044276  0.72122285    -0.70300
O1959       O  0.73515955  0.26872437  0.72129402    -0.70300
O1960       O  0.73409315  0.26692075  0.77950415    -0.70300
O1961       O  0.77760168  0.31206996  0.75080805    -0.70200
O1962       O  0.69178238  0.22364547  0.74988231    -0.70400
V1963       V  0.76410298  0.24094825  0.75026585     1.35200
V1964       V  0.73522642  0.26732731  0.75039182     1.35200
C1965       C  0.69218145  0.19484340  0.75003301     0.79000
C1966       C  0.80729337  0.31340704  0.75039374     0.79100
C1967       C  0.74920435  0.25319581  0.78939330     0.78900
C1968       C  0.74990549  0.25468146  0.71143863     0.78900
C1969       C  0.87663650  0.15742901  0.75086342     0.25100
C1970       C  0.90935938  0.15822909  0.75037016    -0.23000
C1971       C  0.90933207  0.12593044  0.74946480     0.20000
C1972       C  0.87739664  0.09371038  0.74919328     0.25100
C1973       C  0.84467908  0.09297128  0.74980514    -0.22900
C1974       C  0.84478732  0.12530161  0.75057640     0.20000
F1975       F  0.81402539  0.12610683  0.75114813    -0.12900
F1976       F  0.87518045  0.18777334  0.75173760    -0.15200
F1977       F  0.87870863  0.06329345  0.74821973    -0.15200
F1978       F  0.94018616  0.12531803  0.74866830    -0.12900
C1979       C  0.65774287  0.37725721  0.75088899     0.25100
C1980       C  0.65816561  0.40975806  0.75071379    -0.23000
C1981       C  0.62555254  0.40929105  0.75098656     0.20000
C1982       C  0.59344228  0.37719151  0.75106514     0.25100
C1983       C  0.59309041  0.34470790  0.75090946    -0.22900
C1984       C  0.62572186  0.34524692  0.75095460     0.20000
F1985       F  0.62694073  0.31474918  0.75107355    -0.12900
F1986       F  0.68836836  0.37616874  0.75102365    -0.15200
F1987       F  0.56273017  0.37811391  0.75129591    -0.15200
F1988       F  0.62450169  0.43987596  0.75122681    -0.12900
C1989       C  0.87345223  0.41232968  0.74988075     0.25100
C1990       C  0.90609225  0.41285738  0.74941804    -0.23000
C1991       C  0.90573232  0.38040260  0.74897949     0.20000
C1992       C  0.87378348  0.34837558  0.74931784     0.25100
C1993       C  0.84112705  0.34773372  0.75003601    -0.22900
C1994       C  0.84137346  0.38017591  0.75019705     0.20000
F1995       F  0.81061538  0.38099978  0.75065655    -0.12900
F1996       F  0.87235824  0.44289642  0.75005360    -0.15200
F1997       F  0.87510925  0.31794181  0.74890392    -0.15200
F1998       F  0.93635895  0.37936587  0.74815142    -0.12900
C1999       C  0.62619311  0.09707238  0.75712920     0.25100
C2000       C  0.59478592  0.09459838  0.74949175    -0.23000
C2001       C  0.59580082  0.12538809  0.74200519     0.20000
C2002       C  0.62740355  0.15783145  0.74213923     0.25100
C2003       C  0.65877077  0.16036076  0.74983028    -0.22900
C2004       C  0.65784241  0.12961243  0.75730823     0.20000
F2005       F  0.68737032  0.13112892  0.76531553    -0.12900
F2006       F  0.62616554  0.06822670  0.76496976    -0.15200
F2007       F  0.62736957  0.18664019  0.73428088    -0.15200
F2008       F  0.56628962  0.12410969  0.73415062    -0.12900
C2009       C  0.72351075  0.22388561  0.65714683     0.25100
C2010       C  0.75119278  0.25149265  0.64598698    -0.23000
C2011       C  0.77791031  0.28082743  0.65666596     0.20000
C2012       C  0.77720738  0.28212071  0.67807833     0.25100
C2013       C  0.74974828  0.25435315  0.68903548    -0.22900
C2014       C  0.72281951  0.22540391  0.67852550     0.20000
F2015       F  0.69589292  0.19857276  0.68902812    -0.12900
F2016       F  0.69670420  0.19575494  0.64737269    -0.15200
F2017       F  0.80352852  0.31022561  0.68815920    -0.15200
F2018       F  0.80515633  0.30783564  0.64645441    -0.12900
C2019       C  0.75650114  0.47589617  0.67718512     0.25100
C2020       C  0.75142783  0.50095515  0.68803405    -0.23000
C2021       C  0.74753907  0.02427502  0.67657910     0.20000
C2022       C  0.74846161  0.02412333  0.65513135     0.25100
C2023       C  0.75380535  0.99903451  0.64463701    -0.22900
C2024       C  0.75625396  0.47555238  0.65574921     0.20000
F2025       F  0.76146558  0.45123530  0.64573519    -0.12900
F2026       F  0.76114740  0.45128184  0.68727279    -0.15200
F2027       F  0.74325547  0.04800885  0.64460408    -0.15200
F2028       F  0.74192169  0.04868631  0.68614259    -0.12900
C2029       C  0.87548641  0.21517359  0.58376198     0.25100
C2030       C  0.90811149  0.24714338  0.58363563    -0.23000
C2031       C  0.90786061  0.27930957  0.58326329     0.20000
C2032       C  0.87587123  0.27951636  0.58329718     0.25100
C2033       C  0.84324347  0.24753939  0.58372395    -0.22900
C2034       C  0.84351572  0.21537883  0.58383879     0.20000
F2035       F  0.81281519  0.18382578  0.58401364    -0.12900
F2036       F  0.87427471  0.18346677  0.58389664    -0.15200
F2037       F  0.87706137  0.31120884  0.58298127    -0.15200
F2038       F  0.93858693  0.31083362  0.58282718    -0.12900
C2039       C  0.59365593  0.21522559  0.58106639     0.25100
C2040       C  0.59273750  0.24650730  0.58494338    -0.23000
C2041       C  0.62480417  0.27801391  0.58872790     0.20000
C2042       C  0.65701204  0.27830245  0.58856001     0.25100
C2043       C  0.65796840  0.24705537  0.58463312    -0.22900
C2044       C  0.62588463  0.21552463  0.58084733     0.20000
F2045       F  0.62554300  0.18488754  0.57657571    -0.12900
F2046       F  0.56343826  0.18430541  0.57712349    -0.15200
F2047       F  0.68719675  0.30923916  0.59251410    -0.15200
F2048       F  0.62513895  0.30866420  0.59293378    -0.12900
C2049       C  0.97249778  0.22003005  0.65748198     0.25100
C2050       C  0.50037837  0.24724808  0.64621337    -0.23000
C2051       C  0.52856289  0.27538010  0.65683657     0.20000
C2052       C  0.52903008  0.27607582  0.67826136     0.25100
C2053       C  0.50132767  0.24889298  0.68937606    -0.22900
C2054       C  0.97289675  0.22096287  0.67894311     0.20000
F2055       F  0.94556587  0.19477387  0.68956643    -0.12900
F2056       F  0.94444389  0.19302313  0.64776192    -0.15200
F2057       F  0.55653173  0.30330744  0.68820339    -0.15200
F2058       F  0.55603701  0.30192978  0.64650747    -0.12900
C2059       C  0.87734691  0.02793166  0.58021766     0.25100
C2060       C  0.84509507  0.99637820  0.58348279    -0.23000
C2061       C  0.84329485  0.46816507  0.58797045     0.20000
C2062       C  0.87536189  0.46811770  0.58789538     0.25100
C2063       C  0.91008296  0.99637841  0.58359923    -0.22900
C2064       C  0.90940230  0.02793538  0.58025964     0.20000
F2065       F  0.93973768  0.05900245  0.57684175    -0.12900
F2066       F  0.87806058  0.05896511  0.57672942    -0.15200
F2067       F  0.87516192  0.43799475  0.59339189    -0.15200
F2068       F  0.81336962  0.43814287  0.59360291    -0.12900
C2069       C  0.62773014  0.02868177  0.58122059     0.25100
C2070       C  0.59523533  0.99674971  0.58275450    -0.23000
C2071       C  0.59318268  0.46793234  0.58659857     0.20000
C2072       C  0.62526354  0.46792627  0.58665851     0.25100
C2073       C  0.66023397  0.99665505  0.58301446    -0.22900
C2074       C  0.65979126  0.02863682  0.58133053     0.20000
F2075       F  0.69037838  0.06010967  0.57970460    -0.12900
F2076       F  0.62870575  0.06016988  0.57946163    -0.15200
F2077       F  0.62440845  0.43663779  0.58930945    -0.15200
F2078       F  0.56269152  0.43664119  0.58914681    -0.12900
C2079       C  0.00889177  0.47979813  0.65573036     0.25100
C2080       C  0.50406351  0.99895522  0.64427606    -0.23000
C2081       C  0.49686473  0.02288125  0.65463940     0.20000
C2082       C  0.49668996  0.02369336  0.67604495     0.25100
C2083       C  0.50414097  0.00082440  0.68752531    -0.22900
C2084       C  0.00919551  0.48077661  0.67714230     0.20000
F2085       F  0.01895514  0.45994946  0.68745347    -0.12900
F2086       F  0.01891859  0.45869625  0.64597557    -0.15200
F2087       F  0.48960280  0.04721529  0.68547757    -0.15200
F2088       F  0.48911966  0.04495516  0.64402324    -0.12900
C2089       C  0.76223982  0.23311923  0.84437368     0.25100
C2090       C  0.74755414  0.25029631  0.85560479    -0.23000
C2091       C  0.73308386  0.26810439  0.84479718     0.20000
C2092       C  0.73353176  0.26896385  0.82337768     0.25100
C2093       C  0.74853709  0.25211280  0.81215174    -0.22900
C2094       C  0.76274112  0.23403217  0.82294913     0.20000
F2095       F  0.77703952  0.21691111  0.81285081    -0.12900
F2096       F  0.77619837  0.21527487  0.85403390    -0.15200
F2097       F  0.71933206  0.28656794  0.81370887    -0.15200
F2098       F  0.71847477  0.28493336  0.85488260    -0.12900
C2099       C  0.74566741  0.52632769  0.84400071     0.25100
C2100       C  0.74916018  0.99976097  0.85491323    -0.23000
C2101       C  0.75173583  0.97341834  0.84388164     0.20000
C2102       C  0.75265521  0.97406106  0.82246159     0.25100
C2103       C  0.75094601  0.00102441  0.81156731    -0.22900
C2104       C  0.74662443  0.52709256  0.82256740     0.20000
F2105       F  0.74421474  0.55320575  0.81267874    -0.12900
F2106       F  0.74242970  0.55176858  0.85411852    -0.15200
F2107       F  0.75432680  0.94768962  0.81239211    -0.15200
F2108       F  0.75250705  0.94643457  0.85379349    -0.12900
C2109       C  0.90609108  0.12378120  0.91692814     0.25100
C2110       C  0.90624644  0.15616606  0.91669665    -0.23000
C2111       C  0.87356327  0.15549382  0.91659209     0.20000
C2112       C  0.84164438  0.12340527  0.91668009     0.25100
C2113       C  0.84143756  0.09100592  0.91679662    -0.22900
C2114       C  0.87410681  0.09162496  0.91698114     0.20000
F2115       F  0.87533577  0.06113363  0.91728283    -0.12900
F2116       F  0.93687811  0.12300310  0.91720815    -0.15200
F2117       F  0.81092143  0.12431335  0.91662991    -0.15200
F2118       F  0.87221064  0.18591909  0.91632720    -0.12900
C2119       C  0.59044261  0.37436362  0.91809392     0.25100
C2120       C  0.59004690  0.34189185  0.91740146    -0.23000
C2121       C  0.62262292  0.34236568  0.91652242     0.20000
C2122       C  0.65466575  0.37436468  0.91624987     0.25100
C2123       C  0.65509844  0.40685808  0.91685205    -0.22900
C2124       C  0.62253077  0.40640885  0.91782601     0.20000
F2125       F  0.62149661  0.43698178  0.91860177    -0.12900
F2126       F  0.55979219  0.37533685  0.91909451    -0.15200
F2127       F  0.68526651  0.37328605  0.91533787    -0.15200
F2128       F  0.62374037  0.31182840  0.91582569    -0.12900
C2129       C  0.52966310  0.25928359  0.84484819     0.25100
C2130       C  0.49878613  0.25231360  0.85549790    -0.23000
C2131       C  0.96862186  0.24671486  0.84445961     0.20000
C2132       C  0.96909142  0.24710191  0.82300078     0.25100
C2133       C  0.49989016  0.25319032  0.81229558    -0.22900
C2134       C  0.53018691  0.25964577  0.82342819     0.20000
F2135       F  0.56062059  0.26720422  0.81355328    -0.12900
F2136       F  0.55966221  0.26668554  0.85520622    -0.15200
F2137       F  0.93920305  0.24013037  0.81266213    -0.15200
F2138       F  0.93830360  0.23937969  0.85439639    -0.12900
C2139       C  0.87078777  0.40716491  0.91516785     0.25100
C2140       C  0.90363859  0.40829062  0.91649545    -0.23000
C2141       C  0.90378204  0.37612828  0.91807835     0.20000
C2142       C  0.87203776  0.34382164  0.91845310     0.25100
C2143       C  0.83919292  0.34268018  0.91720931    -0.22900
C2144       C  0.83899841  0.37480269  0.91553427     0.20000
F2145       F  0.80803914  0.37509619  0.91403069    -0.12900
F2146       F  0.86919826  0.43735014  0.91338091    -0.15200
F2147       F  0.87368616  0.31366057  0.92019663    -0.15200
F2148       F  0.93468197  0.37567793  0.91936310    -0.12900
C2149       C  0.62304334  0.15591063  0.91550247     0.25100
C2150       C  0.65558760  0.15640551  0.91708816    -0.23000
C2151       C  0.65514811  0.12397418  0.91850091     0.20000
C2152       C  0.62307530  0.09195083  0.91823159     0.25100
C2153       C  0.59056378  0.09147376  0.91656541    -0.22900
C2154       C  0.59099228  0.12390810  0.91527432     0.20000
F2155       F  0.56040252  0.12489864  0.91366957    -0.12900
F2156       F  0.62196736  0.18641807  0.91409950    -0.15200
F2157       F  0.62404890  0.06141297  0.91981113    -0.15200
F2158       F  0.68573244  0.12301667  0.92024398    -0.12900
C2159       C  0.98729179  0.02056916  0.84353537     0.25100
C2160       C  0.49791593  0.99993369  0.85446960    -0.23000
C2161       C  0.50724784  0.48233869  0.84371697     0.20000
C2162       C  0.50799268  0.48313751  0.82231983     0.25100
C2163       C  0.49989786  0.00165548  0.81103978    -0.22900
C2164       C  0.98828427  0.02143950  0.82208979     0.20000
F2165       F  0.97808622  0.04226846  0.81217277    -0.12900
F2166       F  0.97618077  0.04062180  0.85348213    -0.15200
F2167       F  0.51799883  0.46220934  0.81235114    -0.15200
F2168       F  0.51661711  0.46072228  0.85346718    -0.12900
C2169       C  0.78017928  0.26314768  0.98949662     0.25100
C2170       C  0.74792608  0.24834118  0.97886718    -0.23000
C2171       C  0.71600163  0.23310079  0.98984050     0.20000
C2172       C  0.71626109  0.23232575  0.01127894     0.25100
C2173       C  0.74864600  0.24743844  0.02213434    -0.22900
C2174       C  0.78064142  0.26306945  0.01091913     0.20000
F2175       F  0.81252481  0.27848918  0.02058468    -0.12900
F2176       F  0.81134982  0.27857532  0.97908806    -0.15200
F2177       F  0.68473591  0.21670095  0.02131129    -0.15200
F2178       F  0.68450047  0.21806584  0.97975184    -0.12900
C2179       C  0.77824628  0.40251878  0.07765254     0.25100
C2180       C  0.74743845  0.40344935  0.08309571    -0.23000
C2181       C  0.71696506  0.37170713  0.08883030     0.20000
C2182       C  0.71733814  0.33981395  0.08911414     0.25100
C2183       C  0.74818753  0.33892407  0.08363578    -0.22900
C2184       C  0.77859186  0.37068319  0.07786837     0.20000
F2185       F  0.80869430  0.37101640  0.07204917    -0.12900
F2186       F  0.80808948  0.43237956  0.07174848    -0.15200
F2187       F  0.68761301  0.30995622  0.09515996    -0.15200
F2188       F  0.68694714  0.37153971  0.09466211    -0.12900
C2189       C  0.72020889  0.12321305  0.08219218     0.25100
C2190       C  0.75199515  0.15587019  0.08367607    -0.23000
C2191       C  0.78430161  0.15578356  0.08476176     0.20000
C2192       C  0.78475298  0.12393054  0.08441312     0.25100
C2193       C  0.75293012  0.09128590  0.08305920    -0.22900
C2194       C  0.72066109  0.09140970  0.08187423     0.20000
F2195       F  0.68927471  0.06073258  0.08021161    -0.12900
F2196       F  0.68838946  0.12179043  0.08091222    -0.15200
F2197       F  0.81653185  0.12524683  0.08555450    -0.15200
F2198       F  0.81566731  0.18651090  0.08627324    -0.12900
C2199       C  0.75426758  0.47356509  0.01052889     0.25100
C2200       C  0.75131717  0.99882671  0.02158019    -0.23000
C2201       C  0.74377093  0.02233599  0.01110886     0.20000
C2202       C  0.74306557  0.02243487  0.98966984     0.25100
C2203       C  0.74971364  0.99874454  0.97841518    -0.22900
C2204       C  0.75418958  0.47401679  0.98909827     0.20000
F2205       F  0.76049617  0.45060735  0.97887495    -0.12900
F2206       F  0.76108745  0.45027752  0.02050108    -0.15200
F2207       F  0.73657882  0.04618603  0.97999287    -0.15200
F2208       F  0.73779568  0.04567215  0.02168273    -0.12900
C2209       C  0.97279420  0.25010110  0.99010321     0.25100
C2210       C  0.49858816  0.24690817  0.97876768    -0.23000
C2211       C  0.52507008  0.24377242  0.98937318     0.20000
C2212       C  0.52586981  0.24408716  0.01081776     0.25100
C2213       C  0.49973987  0.24668335  0.02207601    -0.22900
C2214       C  0.97322846  0.24971830  0.01153352     0.20000
F2215       F  0.94812604  0.25316410  0.02195600    -0.12900
F2216       F  0.94663962  0.25285766  0.98044002    -0.15200
F2217       F  0.55192125  0.24128093  0.02056971    -0.15200
F2218       F  0.55070108  0.24114601  0.97901309    -0.12900
C2219       C  0.53148518  0.40458458  0.08025747     0.25100
C2220       C  0.49921736  0.40465254  0.08179357    -0.23000
C2221       C  0.96735730  0.37195307  0.08284970     0.20000
C2222       C  0.96783108  0.34015278  0.08293681     0.25100
C2223       C  0.50019543  0.34014459  0.08190440    -0.22900
C2224       C  0.53195767  0.37278000  0.08028370     0.20000
F2225       F  0.56372813  0.37416719  0.07872536    -0.12900
F2226       F  0.56284682  0.43531297  0.07870784    -0.15200
F2227       F  0.93642140  0.30940964  0.08414924    -0.15200
F2228       F  0.93554385  0.37054153  0.08405898    -0.12900
C2229       C  0.97022180  0.12348020  0.08454301     0.25100
C2230       C  0.50215895  0.15615366  0.08502640    -0.23000
C2231       C  0.53443910  0.15596616  0.08549532     0.20000
C2232       C  0.53476340  0.12407029  0.08524048     0.25100
C2233       C  0.50283725  0.09143755  0.08453462    -0.22900
C2234       C  0.97055622  0.09159934  0.08430554     0.20000
F2235       F  0.93902180  0.06090087  0.08370686    -0.12900
F2236       F  0.93838117  0.12213126  0.08423505    -0.15200
F2237       F  0.56657092  0.12536778  0.08568558    -0.15200
F2238       F  0.56595505  0.18666879  0.08614727    -0.12900
C2239       C  0.53057578  0.00242501  0.00989597     0.25100
C2240       C  0.50196821  0.00011050  0.02122651    -0.23000
C2241       C  0.96805958  0.49633717  0.01088713     0.20000
C2242       C  0.96788876  0.49730000  0.98945227     0.25100
C2243       C  0.50021126  0.99923792  0.97792572    -0.22900
C2244       C  0.52956346  0.00169661  0.98845701     0.20000
F2245       F  0.55766030  0.00411859  0.97800219    -0.12900
F2246       F  0.55931328  0.00472718  0.01953318    -0.15200
F2247       F  0.93920649  0.49488881  0.97968421    -0.15200
F2248       F  0.93985242  0.49387874  0.02122448    -0.12900
C2249       C  0.74028069  0.21503327  0.49006031     0.25100
C2250       C  0.74582287  0.24544338  0.47935298    -0.23000
C2251       C  0.75118063  0.27524286  0.49057517     0.20000
C2252       C  0.75170126  0.27498488  0.51195242     0.25100
C2253       C  0.74707647  0.24497564  0.52269795    -0.22900
C2254       C  0.74096150  0.21482526  0.51152362     0.20000
F2255       F  0.73650311  0.18538749  0.52129449    -0.12900
F2256       F  0.73515597  0.18575437  0.47980577    -0.15200
F2257       F  0.75620917  0.30412589  0.52210626    -0.15200
F2258       F  0.75541984  0.30466681  0.48089601    -0.12900
C2259       C  0.72766869  0.46796340  0.48871243     0.25100
C2260       C  0.74843163  0.99569016  0.47771927    -0.23000
C2261       C  0.77385606  0.02545086  0.48863045     0.20000
C2262       C  0.77519714  0.02495966  0.51002208     0.25100
C2263       C  0.75112028  0.99470401  0.52111504    -0.22900
C2264       C  0.72771734  0.46762242  0.51016824     0.20000
F2265       F  0.70628799  0.43668061  0.51996187    -0.12900
F2266       F  0.70601457  0.43739369  0.47862349    -0.15200
F2267       F  0.80057640  0.05412324  0.51982753    -0.15200
F2268       F  0.79805443  0.05501046  0.47860762    -0.12900
C2269       C  0.49992008  0.27535458  0.49079580     0.25100
C2270       C  0.49987653  0.24790193  0.47947335    -0.23000
C2271       C  0.00015348  0.21989551  0.49002120     0.20000
C2272       C  0.00038338  0.21935328  0.51147997     0.25100
C2273       C  0.50039450  0.24682027  0.52278714    -0.22900
C2274       C  0.50018575  0.27482631  0.51220636     0.20000
F2275       F  0.49925230  0.30133619  0.52257931    -0.12900
F2276       F  0.49872135  0.30233323  0.48116247    -0.15200
F2277       F  0.00148924  0.19237464  0.52117679    -0.15200
F2278       F  0.00105117  0.19341054  0.47959660    -0.12900
C2279       C  0.87409896  0.21729847  0.41779754     0.25100
C2280       C  0.90646893  0.24951512  0.41868834    -0.23000
C2281       C  0.90570145  0.28137177  0.41963202     0.20000
C2282       C  0.87347522  0.28104385  0.41954585     0.25100
C2283       C  0.84110660  0.24884362  0.41854331    -0.22900
C2284       C  0.84185468  0.21696757  0.41771892     0.20000
F2285       F  0.81140447  0.18525642  0.41673575    -0.12900
F2286       F  0.87340368  0.18586557  0.41684846    -0.15200
F2287       F  0.87420865  0.31250188  0.42042745    -0.15200
F2288       F  0.93613130  0.31308856  0.42069167    -0.12900
C2289       C  0.62442623  0.28212396  0.41817853     0.25100
C2290       C  0.59182115  0.25029985  0.41669249    -0.23000
C2291       C  0.59202660  0.21821222  0.41493712     0.20000
C2292       C  0.62391608  0.21788893  0.41494409     0.25100
C2293       C  0.65650599  0.24964116  0.41667517    -0.22900
C2294       C  0.65634833  0.28180397  0.41815957     0.20000
F2295       F  0.68707072  0.31317627  0.41971565    -0.12900
F2296       F  0.62565781  0.31376036  0.41973762    -0.15200
F2297       F  0.62265203  0.18626617  0.41321081    -0.15200
F2298       F  0.56133933  0.18685315  0.41321189    -0.12900
C2299       C  0.97030736  0.47112932  0.48920554     0.25100
C2300       C  0.49709879  0.99685577  0.47803244    -0.23000
C2301       C  0.52663751  0.02314729  0.48866411     0.20000
C2302       C  0.52805813  0.02244064  0.51002729     0.25100
C2303       C  0.49988749  0.99552222  0.52120405    -0.22900
C2304       C  0.97098919  0.47075154  0.51063553     0.20000
F2305       F  0.94306623  0.44440650  0.52080019    -0.12900
F2306       F  0.94177894  0.44515392  0.47922287    -0.15200
F2307       F  0.55743211  0.04771232  0.51975343    -0.15200
F2308       F  0.55467614  0.04906818  0.47834258    -0.12900
C2309       C  0.87503757  0.47122308  0.41027656     0.25100
C2310       C  0.90473447  0.99967626  0.41581539    -0.23000
C2311       C  0.90307774  0.02940521  0.42267242     0.20000
C2312       C  0.87095194  0.02937383  0.42243758     0.25100
C2313       C  0.83972071  0.99954500  0.41542336    -0.22900
C2314       C  0.84299753  0.47130631  0.41014025     0.20000
F2315       F  0.81301894  0.44109837  0.40478256    -0.12900
F2316       F  0.87472372  0.44096416  0.40498624    -0.15200
F2317       F  0.87036156  0.05831284  0.42957832    -0.15200
F2318       F  0.93236120  0.05828098  0.43012352    -0.12900
C2319       C  0.59203198  0.46937182  0.41114643     0.25100
C2320       C  0.58896007  0.99810257  0.41686040    -0.23000
C2321       C  0.62048991  0.02807770  0.42338905     0.20000
C2322       C  0.65257298  0.02805278  0.42327693     0.25100
C2323       C  0.65394711  0.99805475  0.41663128    -0.22900
C2324       C  0.62423988  0.46956801  0.41086891     0.20000
F2325       F  0.62463178  0.44049990  0.40377919    -0.12900
F2326       F  0.56240940  0.44008503  0.40438257    -0.15200
F2327       F  0.68220155  0.05732449  0.43004484    -0.15200
F2328       F  0.62031011  0.05736111  0.43027583    -0.12900
C2329       C  0.78369140  0.26435506  0.17827852     0.25100
C2330       C  0.75175034  0.25153818  0.18930130    -0.23000
C2331       C  0.71972762  0.23781927  0.17827764     0.20000
C2332       C  0.71957977  0.23676174  0.15687438     0.25100
C2333       C  0.75145093  0.24942205  0.14583838    -0.22900
C2334       C  0.78354508  0.26335972  0.15683166     0.20000
F2335       F  0.81498026  0.27594452  0.14690915    -0.12900
F2336       F  0.81526983  0.27779626  0.18817201    -0.15200
F2337       F  0.68799970  0.22357583  0.14701895    -0.15200
F2338       F  0.68826701  0.22545906  0.18813029    -0.12900
C2339       C  0.76395046  0.28439253  0.32365952     0.25100
C2340       C  0.75124593  0.25281605  0.31258079    -0.23000
C2341       C  0.73912695  0.22081863  0.32307702     0.20000
C2342       C  0.73957542  0.22025465  0.34449200     0.25100
C2343       C  0.75151737  0.25176240  0.35583362    -0.22900
C2344       C  0.76392918  0.28393468  0.34511796     0.20000
F2345       F  0.77574594  0.31496472  0.35531297    -0.12900
F2346       F  0.77558437  0.31557604  0.31366614    -0.15200
F2347       F  0.72874489  0.18883533  0.35403720    -0.15200
F2348       F  0.72770329  0.19016937  0.31252643    -0.12900
C2349       C  0.78165727  0.40927507  0.25003380     0.25100
C2350       C  0.74933626  0.40940191  0.24988964    -0.23000
C2351       C  0.71742074  0.37670512  0.24972029     0.20000
C2352       C  0.71779498  0.34482201  0.24991623     0.25100
C2353       C  0.75012618  0.34472122  0.25028975    -0.22900
C2354       C  0.78202882  0.37741245  0.25024835     0.20000
F2355       F  0.81389830  0.37882095  0.25047218    -0.12900
F2356       F  0.81317564  0.44000324  0.24995390    -0.15200
F2357       F  0.68630554  0.31406281  0.24966070    -0.15200
F2358       F  0.68556707  0.37532197  0.24933433    -0.12900
C2359       C  0.78357380  0.12791069  0.25546468     0.25100
C2360       C  0.75296314  0.09615543  0.24983813    -0.23000
C2361       C  0.72200718  0.09711574  0.24479805     0.20000
C2362       C  0.72167145  0.12899738  0.24533523     0.25100
C2363       C  0.75229595  0.16077525  0.25097129    -0.22900
C2364       C  0.78322683  0.15978085  0.25604229     0.20000
F2365       F  0.81320214  0.18958638  0.26188137    -0.12900
F2366       F  0.81385678  0.12818797  0.26080757    -0.15200
F2367       F  0.69138225  0.12868363  0.23995474    -0.15200
F2368       F  0.69204340  0.06728314  0.23896404    -0.12900
C2369       C  0.72020954  0.47028205  0.15586942     0.25100
C2370       C  0.75508261  0.00012759  0.14453951    -0.23000
C2371       C  0.78352887  0.02790747  0.15515046     0.20000
C2372       C  0.78349374  0.02916246  0.17657154     0.25100
C2373       C  0.75507908  0.00262438  0.18779115    -0.22900
C2374       C  0.72004830  0.47153832  0.17728560     0.20000
F2375       F  0.69960440  0.94785134  0.18754452    -0.12900
F2376       F  0.69963478  0.94545657  0.14610660    -0.15200
F2377       F  0.80465840  0.55308806  0.18648374    -0.15200
F2378       F  0.80519065  0.55051416  0.14506822    -0.12900
C2379       C  0.77317680  0.03289365  0.34374977     0.25100
C2380       C  0.74879455  0.00184327  0.35418701    -0.23000
C2381       C  0.72454331  0.47211766  0.34327424     0.20000
C2382       C  0.72453083  0.47228094  0.32186534     0.25100
C2383       C  0.75198377  0.00322962  0.31093858    -0.22900
C2384       C  0.77494897  0.03343054  0.32232139     0.20000
F2385       F  0.79848317  0.06377311  0.31267121    -0.12900
F2386       F  0.79568647  0.06268184  0.35422750    -0.15200
F2387       F  0.70146884  0.44235034  0.31167972    -0.15200
F2388       F  0.70085158  0.44212437  0.35314590    -0.12900
C2389       C  0.53435450  0.27178507  0.15659936     0.25100
C2390       C  0.50254332  0.25132470  0.14565887    -0.23000
C2391       C  0.97062935  0.23156974  0.15677391     0.20000
C2392       C  0.97062529  0.23247831  0.17818891     0.25100
C2393       C  0.50261371  0.25330092  0.18917186    -0.22900
C2394       C  0.53439410  0.27273418  0.17806854     0.20000
F2395       F  0.56567343  0.29295472  0.18790926    -0.12900
F2396       F  0.56559115  0.29121591  0.14659320    -0.15200
F2397       F  0.93936044  0.21275595  0.18811424    -0.15200
F2398       F  0.93933216  0.21116504  0.14699408    -0.12900
C2399       C  0.97108111  0.22560328  0.32360935     0.25100
C2400       C  0.50042679  0.25234648  0.31283015    -0.23000
C2401       C  0.52894932  0.27905617  0.32398045     0.20000
C2402       C  0.52831889  0.27912029  0.34541903     0.25100
C2403       C  0.49941968  0.25217843  0.35614373    -0.22900
C2404       C  0.97077445  0.22542763  0.34504318     0.20000
F2405       F  0.94231837  0.19925338  0.35494785    -0.12900
F2406       F  0.94326202  0.19908657  0.31345170    -0.15200
F2407       F  0.55646983  0.30506347  0.35567470    -0.15200
F2408       F  0.55732841  0.30546288  0.31415488    -0.12900
C2409       C  0.53199076  0.37753222  0.25454360     0.25100
C2410       C  0.50019220  0.34508287  0.25226993    -0.23000
C2411       C  0.96780377  0.34529301  0.25035754     0.20000
C2412       C  0.96767622  0.37729628  0.25043610     0.25100
C2413       C  0.99961622  0.40976963  0.25224716    -0.22900
C2414       C  0.53184085  0.40947306  0.25465436     0.20000
F2415       F  0.56321102  0.43997425  0.25695634    -0.12900
F2416       F  0.56352677  0.37861105  0.25675160    -0.15200
F2417       F  0.93612418  0.37629152  0.24850304    -0.15200
F2418       F  0.93638377  0.31474090  0.24836466    -0.12900
C2419       C  0.53530977  0.12908289  0.24880212     0.25100
C2420       C  0.00293467  0.09634486  0.24903052    -0.23000
C2421       C  0.97077919  0.09675282  0.24956151     0.20000
C2422       C  0.97067755  0.12871285  0.25017585     0.25100
C2423       C  0.50305311  0.16149624  0.25006032    -0.22900
C2424       C  0.53523919  0.16113567  0.24938601     0.20000
F2425       F  0.56684508  0.19178177  0.24928670    -0.12900
F2426       F  0.56699834  0.13014734  0.24809766    -0.15200
F2427       F  0.93891831  0.12749767  0.25090179    -0.15200
F2428       F  0.93911804  0.06617991  0.24957928    -0.12900
C2429       C  0.53582028  0.02054835  0.15572176     0.25100
C2430       C  0.50450437  0.99834336  0.14478143    -0.23000
C2431       C  0.96897877  0.47392036  0.15626834     0.20000
C2432       C  0.96915720  0.47496011  0.17769712     0.25100
C2433       C  0.50422207  0.00044519  0.18818918    -0.22900
C2434       C  0.53568386  0.02155403  0.17715790     0.20000
F2435       F  0.56634030  0.04380067  0.18703716    -0.12900
F2436       F  0.56660370  0.04194903  0.14573437    -0.15200
F2437       F  0.93904800  0.45227572  0.18787602    -0.15200
F2438       F  0.93863427  0.45039739  0.14656966    -0.12900
C2439       C  0.52779362  0.03073260  0.32294721     0.25100
C2440       C  0.50013896  0.00356441  0.31157128    -0.23000
C2441       C  0.97258614  0.47561527  0.32257273     0.20000
C2442       C  0.97285657  0.47479864  0.34396955     0.25100
C2443       C  0.49879160  0.00175181  0.35483902    -0.22900
C2444       C  0.52696633  0.02999894  0.34438015     0.20000
F2445       F  0.55417972  0.05656395  0.35488670    -0.12900
F2446       F  0.55541063  0.05834912  0.31334170    -0.15200
F2447       F  0.94571071  0.44710422  0.35381948    -0.15200
F2448       F  0.94567624  0.44823625  0.31236672    -0.12900
O2449       O  0.53054328  0.97382510  0.25127049    -0.70200
O2450       O  0.52910760  0.56029781  0.24908799    -0.70500
O2451       O  0.52912432  0.51870034  0.27937750    -0.70300
O2452       O  0.52899824  0.51493289  0.22126485    -0.70300
O2453       O  0.97460895  0.98885291  0.22057694    -0.70300
O2454       O  0.97252505  0.98934841  0.27868985    -0.70300
O2455       O  0.97156884  0.53170786  0.24932412    -0.70200
O2456       O  0.97314480  0.94559898  0.25011987    -0.70400
V2457       V  0.52789513  0.51624391  0.25032239     1.35200
V2458       V  0.97470289  0.98982348  0.24964039     1.35200
C2459       C  0.00169441  0.94469257  0.25088358     0.79000
C2460       C  0.00032478  0.56090757  0.24886880     0.79100
C2461       C  0.50037089  0.50428587  0.28930074     0.78900
C2462       C  0.50026499  0.50012986  0.21128249     0.78900
O2463       O  0.52884725  0.72310556  0.25035781    -0.70200
O2464       O  0.52892386  0.81008089  0.25014103    -0.70500
O2465       O  0.52808087  0.76649140  0.27935464    -0.70300
O2466       O  0.52968324  0.76660540  0.22113777    -0.70300
O2467       O  0.97243992  0.73903807  0.22069251    -0.70300
O2468       O  0.97089493  0.73691393  0.27889092    -0.70300
O2469       O  0.97173854  0.78167222  0.25028707    -0.70200
O2470       O  0.97166732  0.69462918  0.24923832    -0.70400
V2471       V  0.52777064  0.76603676  0.25024777     1.35200
V2472       V  0.97278588  0.73865188  0.24978676     1.35200
C2473       C  0.50017189  0.69388356  0.24946798     0.79000
C2474       C  0.50024634  0.81078926  0.25043586     0.79100
C2475       C  0.49909069  0.75126952  0.28906426     0.78900
C2476       C  0.50119986  0.75262960  0.21090277     0.78900
O2477       O  0.78331700  0.97553988  0.24990073    -0.70200
O2478       O  0.77725241  0.55946841  0.24906076    -0.70500
O2479       O  0.77754782  0.51722283  0.27860779    -0.70300
O2480       O  0.77729211  0.51523720  0.22046337    -0.70300
O2481       O  0.72588957  0.98972735  0.22013661    -0.70300
O2482       O  0.72450408  0.98901060  0.27818834    -0.70300
O2483       O  0.71973527  0.53075665  0.24939642    -0.70200
O2484       O  0.72588393  0.94649158  0.24912777    -0.70400
V2485       V  0.77629726  0.51557393  0.24953220     1.35200
V2486       V  0.72639108  0.99016890  0.24917279     1.35200
C2487       C  0.75474278  0.94613632  0.24948503     0.79000
C2488       C  0.74852089  0.56002971  0.24927351     0.79100
C2489       C  0.74876317  0.50244364  0.28849255     0.78900
C2490       C  0.74849460  0.50052015  0.21054303     0.78900
O2491       O  0.78011759  0.72313116  0.25114716    -0.70200
O2492       O  0.78224333  0.81124427  0.24867338    -0.70500
O2493       O  0.78127050  0.76929146  0.27897805    -0.70300
O2494       O  0.78127163  0.76535408  0.22084088    -0.70300
O2495       O  0.72398258  0.74057543  0.22077696    -0.70300
O2496       O  0.72369480  0.73816758  0.27890802    -0.70300
O2497       O  0.72489707  0.78349689  0.25052861    -0.70200
O2498       O  0.72274155  0.69550708  0.24905067    -0.70400
V2499       V  0.78015675  0.76671734  0.24991085     1.35200
V2500       V  0.72492215  0.74002647  0.24982940     1.35200
C2501       C  0.75105100  0.69420808  0.25009753     0.79000
C2502       C  0.75384057  0.81246459  0.24951021     0.79100
C2503       C  0.75246282  0.75375534  0.28879745     0.78900
C2504       C  0.75261374  0.75261876  0.21082481     0.78900
O2505       O  0.98112516  0.96888211  0.44524760    -0.70200
O2506       O  0.98293422  0.97129798  0.38704883    -0.70500
O2507       O  0.52563305  0.96986894  0.41624700    -0.70300
O2508       O  0.93887426  0.97063352  0.41585410    -0.70300
O2509       O  0.97030133  0.52999786  0.41658670    -0.70300
O2510       O  0.55675343  0.52866624  0.41760939    -0.70300
O2511       O  0.51490803  0.53055279  0.38806025    -0.70200
O2512       O  0.51272631  0.52841693  0.44616264    -0.70400
V2513       V  0.98266494  0.97118868  0.41614754     1.35200
V2514       V  0.51308732  0.52835739  0.41711962     1.35200
C2515       C  0.49780867  0.49936818  0.45574043     0.79000
C2516       C  0.50036116  0.50218046  0.37780651     0.79100
C2517       C  0.55683266  0.49973832  0.41743691     0.78900
C2518       C  0.94078291  0.50156097  0.41601999     0.78900
O2519       O  0.52790326  0.72030423  0.41539423    -0.70200
O2520       O  0.94168531  0.72173765  0.41802697    -0.70500
O2521       O  0.98314134  0.72204580  0.38760112    -0.70300
O2522       O  0.98688783  0.72116905  0.44575603    -0.70300
O2523       O  0.51225935  0.77726496  0.44606730    -0.70300
O2524       O  0.51407322  0.77813369  0.38787979    -0.70300
O2525       O  0.97032618  0.77903402  0.41669688    -0.70200
O2526       O  0.55664204  0.77755477  0.41734243    -0.70400
V2527       V  0.98559531  0.72270511  0.41668425     1.35200
V2528       V  0.51262635  0.77658655  0.41696890     1.35200
C2529       C  0.55720641  0.74891423  0.41615615     0.79000
C2530       C  0.94106254  0.75037952  0.41757164     0.79100
C2531       C  0.49828798  0.74962432  0.37778582     0.78900
C2532       C  0.49917479  0.74844646  0.45586090     0.78900
O2533       O  0.76306197  0.52895076  0.44539139    -0.70200
O2534       O  0.76288565  0.53062928  0.38722576    -0.70500
O2535       O  0.71904925  0.52912044  0.41672519    -0.70300
O2536       O  0.80685463  0.53040106  0.41600176    -0.70300
O2537       O  0.77640374  0.97041688  0.41502529    -0.70300
O2538       O  0.68884230  0.96963762  0.41577722    -0.70300
O2539       O  0.73286989  0.97158732  0.38637349    -0.70200
O2540       O  0.73252303  0.96842130  0.44456742    -0.70400
V2541       V  0.76240995  0.52867685  0.41631628     1.35200
V2542       V  0.73317394  0.97111870  0.41546003     1.35200
C2543       C  0.74912400  0.50002105  0.45511157     0.79000
C2544       C  0.74855450  0.50218579  0.37702051     0.79100
C2545       C  0.68996813  0.50020278  0.41673855     0.78900
C2546       C  0.80777533  0.50189900  0.41546837     0.78900
O2547       O  0.76142549  0.77657257  0.44575237    -0.70200
O2548       O  0.76482266  0.77911328  0.38766959    -0.70500
O2549       O  0.71953359  0.77761936  0.41600690    -0.70300
O2550       O  0.80672566  0.77807518  0.41748829    -0.70300
O2551       O  0.77830150  0.72075697  0.41684154    -0.70300
O2552       O  0.69100175  0.72029724  0.41506575    -0.70300
O2553       O  0.73658597  0.72180032  0.38687145    -0.70200
O2554       O  0.73277205  0.71925789  0.44506397    -0.70400
V2555       V  0.76256450  0.77672350  0.41671536     1.35200
V2556       V  0.73520410  0.72161427  0.41596554     1.35200
C2557       C  0.74662400  0.74757036  0.45539828     0.79000
C2558       C  0.75126163  0.75088514  0.37728316     0.79100
C2559       C  0.69031591  0.74892407  0.41532281     0.78900
C2560       C  0.80749936  0.74950457  0.41744901     0.78900
O2561       O  0.97401887  0.98604505  0.05411156    -0.70200
O2562       O  0.97525149  0.98363368  0.11224742    -0.70500
O2563       O  0.96960152  0.52578321  0.08432387    -0.70300
O2564       O  0.97464591  0.94139432  0.08222385    -0.70300
O2565       O  0.53210676  0.96996318  0.08250075    -0.70300
O2566       O  0.52705660  0.55446964  0.08333015    -0.70300
O2567       O  0.52790789  0.51115621  0.11219334    -0.70200
O2568       O  0.52653298  0.51118182  0.05401450    -0.70400
V2569       V  0.97573517  0.98536373  0.08317722     1.35200
V2570       V  0.52611130  0.51058423  0.08310062     1.35200
C2571       C  0.49756812  0.49771338  0.04427224     0.79000
C2572       C  0.49941561  0.49618809  0.12238228     0.79100
C2573       C  0.49835567  0.55508889  0.08399250     0.78900
C2574       C  0.50334982  0.94071863  0.08219176     0.78900
O2575       O  0.52900471  0.76049837  0.05346153    -0.70200
O2576       O  0.53031300  0.76311914  0.11170149    -0.70500
O2577       O  0.52880682  0.71794384  0.08321939    -0.70300
O2578       O  0.53045971  0.80573833  0.08190444    -0.70300
O2579       O  0.97291857  0.77780875  0.08329439    -0.70300
O2580       O  0.97121746  0.68999195  0.08263822    -0.70300
O2581       O  0.97277938  0.73376079  0.11202931    -0.70200
O2582       O  0.97129284  0.73429505  0.05388355    -0.70400
V2583       V  0.52855526  0.76129010  0.08257542     1.35200
V2584       V  0.97316316  0.73446692  0.08295563     1.35200
C2585       C  0.99979117  0.74738872  0.04373774     0.79000
C2586       C  0.00167914  0.74859370  0.12185722     0.79100
C2587       C  0.49983216  0.68893995  0.08304248     0.78900
C2588       C  0.50201025  0.80688444  0.08246224     0.78900
O2589       O  0.78179464  0.96949832  0.08317173    -0.70200
O2590       O  0.77684629  0.55380631  0.08233988    -0.70500
O2591       O  0.77702743  0.51121851  0.11191703    -0.70300
O2592       O  0.77605197  0.50910228  0.05374985    -0.70300
O2593       O  0.72350162  0.98548438  0.05412052    -0.70300
O2594       O  0.72541281  0.98384721  0.11224131    -0.70300
O2595       O  0.71945590  0.52556780  0.08386954    -0.70200
O2596       O  0.72430818  0.94104403  0.08247008    -0.70400
V2597       V  0.77541692  0.50961433  0.08284294     1.35200
V2598       V  0.72556087  0.98514289  0.08317446     1.35200
C2599       C  0.75296207  0.94030041  0.08287543     0.79000
C2600       C  0.74827853  0.55470330  0.08310987     0.79100
C2601       C  0.74844625  0.49616171  0.12201156     0.78900
C2602       C  0.74709751  0.49610647  0.04406836     0.78900
O2603       O  0.72107326  0.73391953  0.05398218    -0.70200
O2604       O  0.72251924  0.73323207  0.11212610    -0.70500
O2605       O  0.72235897  0.77734401  0.08356182    -0.70300
O2606       O  0.72118662  0.68969919  0.08261332    -0.70300
O2607       O  0.77861722  0.71776938  0.08288428    -0.70300
O2608       O  0.77978650  0.80538290  0.08237419    -0.70300
O2609       O  0.77995478  0.76235167  0.11170896    -0.70200
O2610       O  0.77848180  0.76090137  0.05357108    -0.70400
V2611       V  0.72288393  0.73406743  0.08305873     1.35200
V2612       V  0.77810176  0.76104055  0.08263962     1.35200
C2613       C  0.74956214  0.74747032  0.04378919     0.79000
C2614       C  0.75146882  0.74801756  0.12190451     0.79100
C2615       C  0.75128339  0.80640490  0.08301914     0.78900
C2616       C  0.74971850  0.68867766  0.08274738     0.78900
O2617       O  0.52525865  0.55889040  0.91771119    -0.70200
O2618       O  0.94044836  0.96951627  0.91619351    -0.70500
O2619       O  0.98075175  0.51378707  0.94592637    -0.70300
O2620       O  0.98236983  0.51700804  0.88772035    -0.70300
O2621       O  0.51148499  0.98431699  0.88701635    -0.70300
O2622       O  0.51424939  0.98538181  0.94512466    -0.70300
O2623       O  0.96937157  0.94102348  0.91673049    -0.70200
O2624       O  0.55381310  0.53008441  0.91611011    -0.70400
V2625       V  0.98213262  0.51484036  0.91681978     1.35200
V2626       V  0.51218374  0.98528560  0.91606808     1.35200
C2627       C  0.55454331  0.55936135  0.91698282     0.79000
C2628       C  0.93996838  0.94030079  0.91650748     0.79100
C2629       C  0.49612232  0.50020727  0.95567028     0.78900
C2630       C  0.49612484  0.50228888  0.87760134     0.78900
O2631       O  0.55578239  0.77880823  0.91699336    -0.70200
O2632       O  0.96881240  0.69171120  0.91482298    -0.70500
O2633       O  0.51388551  0.73746884  0.88684404    -0.70300
O2634       O  0.51135191  0.73350670  0.94494432    -0.70300
O2635       O  0.98408498  0.76384515  0.94542475    -0.70300
O2636       O  0.98206393  0.76324032  0.88718661    -0.70300
O2637       O  0.93980225  0.72003596  0.91670987    -0.70200
O2638       O  0.52690813  0.80733647  0.91598051    -0.70400
V2639       V  0.51188483  0.73588678  0.91590289     1.35200
V2640       V  0.98373151  0.76308917  0.91630401     1.35200
C2641       C  0.55629037  0.80802333  0.91666368     0.79000
C2642       C  0.93939093  0.69088660  0.91572913     0.79100
C2643       C  0.49820816  0.75074192  0.87713373     0.78900
C2644       C  0.49796378  0.74856760  0.95514800     0.78900
O2645       O  0.73336641  0.51334413  0.94574561    -0.70200
O2646       O  0.73377063  0.51386576  0.88749813    -0.70500
O2647       O  0.69075650  0.97011067  0.91669531    -0.70300
O2648       O  0.77706776  0.55693535  0.91670238    -0.70300
O2649       O  0.80576892  0.52821573  0.91661295    -0.70300
O2650       O  0.71914533  0.94107877  0.91674172    -0.70300
O2651       O  0.76246590  0.98420931  0.88747664    -0.70200
O2652       O  0.76333412  0.98437465  0.94559099    -0.70400
V2653       V  0.73406198  0.51300776  0.91661291     1.35200
V2654       V  0.76234140  0.98488365  0.91655108     1.35200
C2655       C  0.74750197  0.49867400  0.95566635     0.79000
C2656       C  0.74821085  0.49955383  0.87754403     0.79100
C2657       C  0.68992687  0.94072362  0.91683026     0.78900
C2658       C  0.80638374  0.55751311  0.91660033     0.78900
O2659       O  0.77727856  0.80692491  0.91748139    -0.70200
O2660       O  0.68985158  0.72057144  0.91594187    -0.70500
O2661       O  0.73259234  0.76190313  0.94575626    -0.70300
O2662       O  0.73423844  0.76527303  0.88758797    -0.70300
O2663       O  0.76058659  0.73427342  0.88707409    -0.70300
O2664       O  0.76357436  0.73532594  0.94518273    -0.70300
O2665       O  0.71812141  0.69143327  0.91675846    -0.70200
O2666       O  0.80570294  0.77801376  0.91555903    -0.70400
V2667       V  0.73407118  0.76314709  0.91667646     1.35200
V2668       V  0.76141949  0.73527144  0.91614069     1.35200
C2669       C  0.80650682  0.80735142  0.91659663     0.79000
C2670       C  0.68892977  0.69117049  0.91641168     0.79100
C2671       C  0.74817824  0.74839745  0.95532060     0.78900
C2672       C  0.74738067  0.75000481  0.87733802     0.78900
O2673       O  0.51592613  0.52712628  0.55384691    -0.70200
O2674       O  0.51218961  0.52892807  0.61184715    -0.70500
O2675       O  0.55774230  0.52820436  0.58432367    -0.70300
O2676       O  0.97044075  0.52762520  0.58133348    -0.70300
O2677       O  0.94484172  0.96783863  0.58462514    -0.70300
O2678       O  0.53191802  0.96810119  0.58174557    -0.70300
O2679       O  0.99116413  0.96895426  0.61226494    -0.70200
O2680       O  0.98550634  0.96697821  0.55408089    -0.70400
V2681       V  0.51358945  0.52691452  0.58285217     1.35200
V2682       V  0.98888858  0.96898561  0.58317503     1.35200
C2683       C  0.49994096  0.49822309  0.54416042     0.79000
C2684       C  0.49961904  0.50058073  0.62203784     0.79100
C2685       C  0.55850225  0.49961936  0.58373420     0.78900
C2686       C  0.94126972  0.49896611  0.58262097     0.78900
O2687       O  0.94275382  0.71978405  0.58314408    -0.70200
O2688       O  0.52988719  0.71989075  0.58399617    -0.70500
O2689       O  0.98576070  0.72013910  0.61271078    -0.70300
O2690       O  0.98717161  0.72006923  0.55446161    -0.70300
O2691       O  0.51313219  0.77667954  0.55447302    -0.70300
O2692       O  0.51597613  0.77704884  0.61263241    -0.70300
O2693       O  0.55824565  0.77722992  0.58280138    -0.70200
O2694       O  0.97115901  0.77708288  0.58434892    -0.70400
V2695       V  0.98699798  0.72120133  0.58358093     1.35200
V2696       V  0.51400087  0.77574602  0.58356438     1.35200
C2697       C  0.94194798  0.74832241  0.58381519     0.79000
C2698       C  0.55903606  0.74867214  0.58335537     0.79100
C2699       C  0.50106378  0.74844035  0.62265653     0.78900
C2700       C  0.49969010  0.74794565  0.54456345     0.78900
O2701       O  0.69485518  0.96791948  0.58386513    -0.70200
O2702       O  0.78180097  0.96770967  0.58288876    -0.70500
O2703       O  0.73989311  0.96897596  0.61247077    -0.70300
O2704       O  0.73688724  0.96667922  0.55416655    -0.70300
O2705       O  0.76423364  0.52754894  0.55397979    -0.70300
O2706       O  0.76458846  0.52859900  0.61208325    -0.70300
O2707       O  0.80787751  0.52782470  0.58303576    -0.70200
O2708       O  0.72097975  0.52816654  0.58304313    -0.70400
V2709       V  0.73888881  0.96890318  0.58332859     1.35200
V2710       V  0.76387621  0.52691413  0.58302995     1.35200
C2711       C  0.69166411  0.49956548  0.58373383     0.79000
C2712       C  0.80834019  0.49907849  0.58282451     0.79100
C2713       C  0.75106750  0.50006967  0.62215316     0.78900
C2714       C  0.74921997  0.49880638  0.54408250     0.78900
O2715       O  0.76305675  0.77610697  0.55412579    -0.70200
O2716       O  0.76671923  0.77842785  0.61214628    -0.70500
O2717       O  0.80816865  0.77682249  0.58242151    -0.70300
O2718       O  0.72149759  0.77755969  0.58385581    -0.70300
O2719       O  0.69251189  0.72021225  0.58303066    -0.70300
O2720       O  0.77924038  0.71959635  0.58455716    -0.70300
O2721       O  0.73496942  0.72102006  0.61290350    -0.70200
O2722       O  0.73620783  0.71882570  0.55465459    -0.70400
V2723       V  0.76431435  0.77612014  0.58313918     1.35200
V2724       V  0.73635181  0.72098298  0.58378195     1.35200
C2725       C  0.74908399  0.74719104  0.54439923     0.79000
C2726       C  0.75081876  0.75016284  0.62237228     0.79100
C2727       C  0.80862581  0.74814152  0.58355326     0.78900
C2728       C  0.69213122  0.74898123  0.58341085     0.78900
O2729       O  0.97270982  0.94430535  0.74919540    -0.70200
O2730       O  0.55725487  0.53328657  0.74979995    -0.70500
O2731       O  0.51523275  0.98753095  0.77865710    -0.70300
O2732       O  0.51785200  0.98749769  0.72064840    -0.70300
O2733       O  0.98555717  0.51877496  0.72012059    -0.70300
O2734       O  0.98504093  0.51983243  0.77835542    -0.70300
O2735       O  0.52913731  0.56259083  0.74926707    -0.70200
O2736       O  0.94460358  0.97360765  0.74894845    -0.70400
V2737       V  0.51600004  0.98818965  0.74965869     1.35200
V2738       V  0.98585579  0.51878349  0.74923127     1.35200
C2739       C  0.94354329  0.94414138  0.74903561     0.79000
C2740       C  0.55826344  0.56275866  0.74947543     0.79100
C2741       C  0.49873504  0.50520928  0.78864866     0.78900
C2742       C  0.49943754  0.50397679  0.71053377     0.78900
O2743       O  0.94384263  0.72182879  0.74821819    -0.70200
O2744       O  0.53031030  0.80890805  0.75053726    -0.70500
O2745       O  0.98928511  0.76657226  0.72032149    -0.70300
O2746       O  0.98447499  0.76425292  0.77846095    -0.70300
O2747       O  0.51654184  0.73863952  0.77934513    -0.70300
O2748       O  0.51604856  0.73541278  0.72117864    -0.70300
O2749       O  0.55946641  0.78064661  0.74975158    -0.70200
O2750       O  0.97288574  0.69359189  0.75071709    -0.70400
V2751       V  0.98757152  0.76496363  0.74939932     1.35200
V2752       V  0.51567459  0.73752444  0.75025123     1.35200
C2753       C  0.94348395  0.69271511  0.74932710     0.79000
C2754       C  0.55978269  0.80977530  0.75025769     0.79100
C2755       C  0.50285929  0.75058752  0.71092462     0.78900
C2756       C  0.50017056  0.75141843  0.78880926     0.78900
O2757       O  0.69394008  0.97215822  0.74985520    -0.70200
O2758       O  0.78108730  0.55939836  0.74941562    -0.70500
O2759       O  0.73713100  0.51584200  0.72057892    -0.70300
O2760       O  0.73751067  0.51692075  0.77878069    -0.70300
O2761       O  0.76559273  0.98644297  0.77911934    -0.70300
O2762       O  0.76648818  0.98592207  0.72097667    -0.70300
O2763       O  0.80934390  0.53023766  0.74969023    -0.70200
O2764       O  0.72230600  0.94310465  0.75002845    -0.70400
V2765       V  0.73780390  0.51575955  0.74968415     1.35200
V2766       V  0.76553347  0.98684084  0.75004345     1.35200
C2767       C  0.69309636  0.94276792  0.75006566     0.79000
C2768       C  0.81025941  0.55967045  0.74944275     0.79100
C2769       C  0.75230069  0.00016372  0.71072068     0.78900
C2770       C  0.75156054  0.00133933  0.78887099     0.78900
O2771       O  0.72111047  0.69617303  0.74844283    -0.70200
O2772       O  0.80799861  0.78307597  0.75012783    -0.70500
O2773       O  0.76324607  0.73844957  0.77833351    -0.70300
O2774       O  0.76609665  0.74113061  0.72023513    -0.70300
O2775       O  0.73461148  0.76717900  0.72014171    -0.70300
O2776       O  0.73656124  0.76913673  0.77835032    -0.70300
O2777       O  0.77943146  0.81187525  0.74864723    -0.70200
O2778       O  0.69225705  0.72472469  0.74980146    -0.70400
V2779       V  0.76403518  0.74024943  0.74928442     1.35200
V2780       V  0.73629076  0.76773678  0.74924046     1.35200
C2781       C  0.69175810  0.69550108  0.74908314     0.79000
C2782       C  0.80873913  0.81237971  0.74937155     0.79100
C2783       C  0.74971567  0.75359256  0.78833526     0.78900
C2784       C  0.75040598  0.75416532  0.71032659     0.78900
C2785       C  0.87692772  0.65811485  0.74956346     0.25100
C2786       C  0.90950764  0.65859717  0.74908564    -0.23000
C2787       C  0.90913884  0.62612193  0.74846851     0.20000
C2788       C  0.87704286  0.59404837  0.74853253     0.25100
C2789       C  0.84446300  0.59360695  0.74920629    -0.22900
C2790       C  0.84490053  0.62611526  0.74964978     0.20000
F2791       F  0.81429593  0.62721547  0.75027165    -0.12900
F2792       F  0.87579134  0.68864599  0.75010861    -0.15200
F2793       F  0.87807675  0.56346753  0.74788770    -0.15200
F2794       F  0.93982714  0.62518877  0.74768302    -0.12900
C2795       C  0.65843568  0.87632573  0.75059337     0.25100
C2796       C  0.65889580  0.90884200  0.75034767    -0.23000
C2797       C  0.62631968  0.90844343  0.75037773     0.20000
C2798       C  0.59420418  0.87640000  0.75042142     0.25100
C2799       C  0.59379592  0.84389101  0.75046088    -0.22900
C2800       C  0.62638061  0.84434303  0.75063288     0.20000
F2801       F  0.62750760  0.81379861  0.75084225    -0.12900
F2802       F  0.68904424  0.87520690  0.75079764    -0.15200
F2803       F  0.56353660  0.87741311  0.75035751    -0.15200
F2804       F  0.62529890  0.93904791  0.75035290    -0.12900
C2805       C  0.87672257  0.91071531  0.74904702     0.25100
C2806       C  0.90901082  0.91046726  0.74902786    -0.23000
C2807       C  0.90784891  0.87763382  0.74910681     0.20000
C2808       C  0.87541569  0.84598744  0.74922234     0.25100
C2809       C  0.84312837  0.84619409  0.74927622    -0.22900
C2810       C  0.84424410  0.87902424  0.74917898     0.20000
F2811       F  0.81392672  0.88069541  0.74927503    -0.12900
F2812       F  0.87632322  0.94164138  0.74897587    -0.15200
F2813       F  0.87587976  0.81509956  0.74923777    -0.15200
F2814       F  0.93812068  0.87589035  0.74907914    -0.12900
C2815       C  0.62478489  0.59722333  0.75281548     0.25100
C2816       C  0.59253947  0.59660889  0.74929200    -0.23000
C2817       C  0.59338432  0.62882940  0.74555125     0.20000
C2818       C  0.62550299  0.66078184  0.74545013     0.25100
C2819       C  0.65772159  0.66144598  0.74903556    -0.22900
C2820       C  0.65696597  0.62922277  0.75264233     0.20000
F2821       F  0.68732070  0.62854764  0.75633982    -0.12900
F2822       F  0.62533722  0.56692921  0.75672682    -0.15200
F2823       F  0.62491329  0.69104616  0.74152054    -0.15200
F2824       F  0.56312423  0.62960170  0.74171582    -0.12900
C2825       C  0.78277122  0.76726246  0.65569632     0.25100
C2826       C  0.75065791  0.75132222  0.64482640    -0.23000
C2827       C  0.71845068  0.73718207  0.65552199     0.20000
C2828       C  0.71838408  0.73902244  0.67693147     0.25100
C2829       C  0.75047700  0.75397641  0.68783638    -0.22900
C2830       C  0.78266262  0.76805384  0.67711853     0.20000
F2831       F  0.81395929  0.78317899  0.68741487    -0.12900
F2832       F  0.81414171  0.78137517  0.64554864    -0.15200
F2833       F  0.68702295  0.72541368  0.68705260    -0.15200
F2834       F  0.68719325  0.72232343  0.64518868    -0.12900
C2835       C  0.75881158  0.97514557  0.67737882     0.25100
C2836       C  0.75278344  0.99981834  0.68797599    -0.23000
C2837       C  0.74663965  0.52596076  0.67692823     0.20000
C2838       C  0.74702265  0.52594535  0.65549691     0.25100
C2839       C  0.75150965  0.50055223  0.64474405    -0.22900
C2840       C  0.75908081  0.97464183  0.65593836     0.20000
F2841       F  0.76537052  0.95079829  0.64621352    -0.12900
F2842       F  0.76392272  0.95104076  0.68771923    -0.15200
F2843       F  0.74209311  0.55025214  0.64524699    -0.15200
F2844       F  0.74200505  0.55078619  0.68676349    -0.12900
C2845       C  0.87531967  0.71613997  0.58250451     0.25100
C2846       C  0.90779357  0.74817251  0.58392733    -0.23000
C2847       C  0.90722724  0.78009535  0.58538320     0.20000
C2848       C  0.87513601  0.78005562  0.58526277     0.25100
C2849       C  0.84266511  0.74805490  0.58373474    -0.22900
C2850       C  0.84319756  0.71610255  0.58241016     0.20000
F2851       F  0.81263574  0.68459512  0.58080732    -0.12900
F2852       F  0.87442745  0.68465586  0.58109783    -0.15200
F2853       F  0.87606453  0.81154270  0.58679989    -0.15200
F2854       F  0.93775176  0.81164161  0.58700246    -0.12900
C2855       C  0.59406405  0.71779465  0.57886632     0.25100
C2856       C  0.59314700  0.74890867  0.58328058    -0.23000
C2857       C  0.62514500  0.78013814  0.58767301     0.20000
C2858       C  0.65727682  0.78022034  0.58769884     0.25100
C2859       C  0.65816614  0.74906054  0.58331580    -0.22900
C2860       C  0.62615793  0.71787815  0.57886301     0.20000
F2861       F  0.62575446  0.68734521  0.57419022    -0.12900
F2862       F  0.56394918  0.68722009  0.57420482    -0.15200
F2863       F  0.68740820  0.81079046  0.59234893    -0.15200
F2864       F  0.62544122  0.81061812  0.59234690    -0.12900
C2865       C  0.97432647  0.72133006  0.65650676     0.25100
C2866       C  0.50170139  0.74873390  0.64532971    -0.23000
C2867       C  0.52965429  0.77700469  0.65599971     0.20000
C2868       C  0.53022866  0.77737725  0.67744016     0.25100
C2869       C  0.50283610  0.74971924  0.68849071    -0.22900
C2870       C  0.97487053  0.72191092  0.67795466     0.20000
F2871       F  0.94792856  0.69521186  0.68852696    -0.12900
F2872       F  0.94649305  0.69413535  0.64675611    -0.15200
F2873       F  0.55753874  0.80469714  0.68744662    -0.15200
F2874       F  0.55676308  0.80399107  0.64569880    -0.12900
C2875       C  0.87409211  0.52972706  0.57751539     0.25100
C2876       C  0.84227631  0.49896402  0.58274457    -0.23000
C2877       C  0.84577460  0.96488787  0.58709709     0.20000
C2878       C  0.87785709  0.96488205  0.58714681     0.25100
C2879       C  0.90719638  0.49887898  0.58259614    -0.22900
C2880       C  0.90614350  0.52969795  0.57743918     0.20000
F2881       F  0.93607720  0.55991298  0.57206788    -0.12900
F2882       F  0.87428295  0.55989159  0.57213883    -0.15200
F2883       F  0.87718738  0.93392017  0.59084500    -0.15200
F2884       F  0.81544276  0.93399064  0.59087262    -0.12900
C2885       C  0.62503214  0.53157185  0.58196661     0.25100
C2886       C  0.59261530  0.49972202  0.58412111    -0.23000
C2887       C  0.59568583  0.96480050  0.58457743     0.20000
C2888       C  0.62773784  0.96475040  0.58470343     0.25100
C2889       C  0.65765681  0.49969682  0.58415495    -0.22900
C2890       C  0.65711986  0.53156413  0.58198552     0.20000
F2891       F  0.68762577  0.56292482  0.57968240    -0.12900
F2892       F  0.62587764  0.56289748  0.57954463    -0.15200
F2893       F  0.62673334  0.93326370  0.58657384    -0.15200
F2894       F  0.56510931  0.93338289  0.58645889    -0.12900
C2895       C  0.01206451  0.97646796  0.65567394     0.25100
C2896       C  0.49936715  0.50132547  0.64455522    -0.23000
C2897       C  0.48960040  0.52335531  0.65490564     0.20000
C2898       C  0.48924302  0.52400471  0.67632864     0.25100
C2899       C  0.49931081  0.50303745  0.68780271    -0.22900
C2900       C  0.01239092  0.97754151  0.67709914     0.20000
F2901       F  0.02018420  0.95531987  0.68750620    -0.12900
F2902       F  0.02029415  0.95395612  0.64597874    -0.15200
F2903       F  0.47923184  0.54537122  0.68575676    -0.15200
F2904       F  0.47952340  0.54362516  0.64424856    -0.12900
C2905       C  0.76528977  0.73648014  0.84341304     0.25100
C2906       C  0.74760990  0.75070981  0.85456523    -0.23000
C2907       C  0.73053900  0.76589649  0.84367935     0.20000
C2908       C  0.73135609  0.76703088  0.82223873     0.25100
C2909       C  0.74913859  0.75287252  0.81110686    -0.22900
C2910       C  0.76610904  0.73761581  0.82201006     0.20000
F2911       F  0.78386383  0.72386968  0.81204030    -0.12900
F2912       F  0.78215119  0.72154000  0.85314387    -0.15200
F2913       F  0.71447100  0.78189688  0.81245358    -0.15200
F2914       F  0.71274094  0.77954454  0.85370121    -0.12900
C2915       C  0.74755452  0.02680267  0.84403943     0.25100
C2916       C  0.74894895  0.50021206  0.85485224    -0.23000
C2917       C  0.75333194  0.47495402  0.84379248     0.20000
C2918       C  0.75425021  0.47569501  0.82237402     0.25100
C2919       C  0.75086120  0.50174038  0.81151598    -0.22900
C2920       C  0.74844829  0.02743272  0.82258616     0.20000
F2921       F  0.74782362  0.05445856  0.81263727    -0.12900
F2922       F  0.74610466  0.05325067  0.85415873    -0.15200
F2923       F  0.75759072  0.45028992  0.81227940    -0.15200
F2924       F  0.75594061  0.44893358  0.85365715    -0.12900
C2925       C  0.90511725  0.62430778  0.91610550     0.25100
C2926       C  0.90538390  0.65674179  0.91578453    -0.23000
C2927       C  0.87272115  0.65613828  0.91572968     0.20000
C2928       C  0.84072714  0.62404715  0.91604025     0.25100
C2929       C  0.84044790  0.59160280  0.91637984    -0.22900
C2930       C  0.87310546  0.59219651  0.91639961     0.20000
F2931       F  0.87431367  0.56169841  0.91676258    -0.12900
F2932       F  0.93585059  0.62342687  0.91627026    -0.15200
F2933       F  0.81001743  0.62498130  0.91600393    -0.15200
F2934       F  0.87147755  0.68661985  0.91533795    -0.12900
C2935       C  0.59100737  0.87459889  0.91732553     0.25100
C2936       C  0.59042641  0.84202066  0.91702299    -0.23000
C2937       C  0.62294195  0.84230426  0.91703361     0.20000
C2938       C  0.65509457  0.87422329  0.91706969     0.25100
C2939       C  0.65569665  0.90681515  0.91708416    -0.22900
C2940       C  0.62319195  0.90655020  0.91735693     0.20000
F2941       F  0.62230261  0.93721721  0.91766587    -0.12900
F2942       F  0.56043060  0.87577241  0.91762383    -0.15200
F2943       F  0.68563898  0.87297675  0.91705759    -0.15200
F2944       F  0.62389965  0.81166693  0.91693789    -0.12900
C2945       C  0.53011304  0.76037740  0.84393900     0.25100
C2946       C  0.49870513  0.75156715  0.85456336    -0.23000
C2947       C  0.96770194  0.74318515  0.84340772     0.20000
C2948       C  0.96821042  0.74339646  0.82194766     0.25100
C2949       C  0.49962704  0.75176712  0.81138239    -0.22900
C2950       C  0.53055425  0.76041784  0.82251269     0.20000
F2951       F  0.56145147  0.76983849  0.81261645    -0.12900
F2952       F  0.56062328  0.76988276  0.85432641    -0.15200
F2953       F  0.93774870  0.73396740  0.81152575    -0.15200
F2954       F  0.93675793  0.73350899  0.85331606    -0.12900
C2955       C  0.87333930  0.90578717  0.91537965     0.25100
C2956       C  0.90587305  0.90622396  0.91661223    -0.23000
C2957       C  0.90535010  0.87371941  0.91796502     0.20000
C2958       C  0.87320353  0.84170727  0.91804250     0.25100
C2959       C  0.84069372  0.84130843  0.91672842    -0.22900
C2960       C  0.84123396  0.87381265  0.91548043     0.20000
F2961       F  0.81066610  0.87490101  0.91418283    -0.12900
F2962       F  0.87233449  0.93632172  0.91393512    -0.15200
F2963       F  0.87410347  0.81112562  0.91957737    -0.15200
F2964       F  0.93594133  0.87267717  0.91928036    -0.12900
C2965       C  0.62223999  0.65756627  0.91577054     0.25100
C2966       C  0.65454591  0.65744683  0.91662578    -0.23000
C2967       C  0.65353380  0.62472169  0.91779907     0.20000
C2968       C  0.62116358  0.59302585  0.91801566     0.25100
C2969       C  0.58886340  0.59313681  0.91705515    -0.22900
C2970       C  0.58985659  0.62585488  0.91600301     0.20000
F2971       F  0.55949940  0.62738590  0.91503636    -0.12900
F2972       F  0.62173144  0.68838650  0.91462615    -0.15200
F2973       F  0.62168095  0.56221692  0.91927731    -0.15200
F2974       F  0.68386524  0.62314206  0.91879197    -0.12900
C2975       C  0.98669959  0.52469392  0.84383682     0.25100
C2976       C  0.49665380  0.50315634  0.85484465    -0.23000
C2977       C  0.50939388  0.97975136  0.84343254     0.20000
C2978       C  0.51043047  0.98064309  0.82204844     0.25100
C2979       C  0.49812255  0.50475137  0.81140372    -0.22900
C2980       C  0.98742810  0.52543357  0.82237841     0.20000
F2981       F  0.97800524  0.54691609  0.81251667    -0.12900
F2982       F  0.97675396  0.54562178  0.85386009    -0.15200
F2983       F  0.52155288  0.96051311  0.81219220    -0.15200
F2984       F  0.51947122  0.95874642  0.85325782    -0.12900
C2985       C  0.78073216  0.76296704  0.98841824     0.25100
C2986       C  0.74847721  0.74799035  0.97778944    -0.23000
C2987       C  0.71654317  0.73282640  0.98873210     0.20000
C2988       C  0.71676832  0.73241822  0.01016330     0.25100
C2989       C  0.74913808  0.74766590  0.02103031    -0.22900
C2990       C  0.78116311  0.76317833  0.00984043     0.20000
F2991       F  0.81303112  0.77888089  0.01953027    -0.12900
F2992       F  0.81190762  0.77831252  0.97801413    -0.15200
F2993       F  0.68522635  0.71701579  0.02017436    -0.15200
F2994       F  0.68506568  0.71756752  0.97861319    -0.12900
C2995       C  0.78321239  0.90459029  0.07776177     0.25100
C2996       C  0.75265593  0.90611770  0.08304357    -0.23000
C2997       C  0.72171739  0.87455565  0.08849618     0.20000
C2998       C  0.72128156  0.84227708  0.08853122     0.25100
C2999       C  0.75177697  0.84069854  0.08311033    -0.22900
C3000       C  0.78277243  0.87230346  0.07776613     0.20000
F3001       F  0.81266585  0.87204761  0.07215005    -0.12900
F3002       F  0.81350477  0.93426459  0.07217572    -0.15200
F3003       F  0.69101823  0.81266126  0.09423252    -0.15200
F3004       F  0.69189744  0.87487326  0.09422234    -0.12900
C3005       C  0.71704799  0.62202722  0.08200111     0.25100
C3006       C  0.74930766  0.65436690  0.08280137    -0.23000
C3007       C  0.78122375  0.65351260  0.08372679     0.20000
C3008       C  0.78087866  0.62128818  0.08384412     0.25100
C3009       C  0.74862291  0.58895919  0.08306240    -0.22900
C3010       C  0.71670463  0.58979285  0.08214913     0.20000
F3011       F  0.68492221  0.55940556  0.08126263    -0.12900
F3012       F  0.68555800  0.62133919  0.08100164    -0.15200
F3013       F  0.81237243  0.62197483  0.08483488    -0.15200
F3014       F  0.81303000  0.68387307  0.08459272    -0.12900
C3015       C  0.75820200  0.97540135  0.01054808     0.25100
C3016       C  0.74676929  0.49652122  0.02161683    -0.23000
C3017       C  0.73920184  0.52003907  0.01116308     0.20000
C3018       C  0.73944328  0.52087090  0.98971353     0.25100
C3019       C  0.74702935  0.49788245  0.97840229    -0.22900
C3020       C  0.75723775  0.97516343  0.98913519     0.20000
F3021       F  0.76306516  0.95139038  0.97896284    -0.12900
F3022       F  0.76527879  0.95233168  0.02056813    -0.15200
F3023       F  0.73290240  0.54462874  0.98009336    -0.15200
F3024       F  0.73231442  0.54271517  0.02177675    -0.12900
C3025       C  0.97293519  0.75229211  0.98913885     0.25100
C3026       C  0.49845177  0.74832616  0.97783023    -0.23000
C3027       C  0.52434451  0.74416654  0.98841296     0.20000
C3028       C  0.52504301  0.74421070  0.00984273     0.25100
C3029       C  0.49949402  0.74774027  0.02112010    -0.22900
C3030       C  0.97325600  0.75166208  0.01057835     0.20000
F3031       F  0.94868380  0.75591473  0.02104521    -0.12900
F3032       F  0.94754851  0.75636458  0.97949513    -0.15200
F3033       F  0.55034908  0.74010859  0.01956352    -0.15200
F3034       F  0.54950937  0.74075323  0.97804525    -0.12900
C3035       C  0.53503364  0.90570873  0.08093219     0.25100
C3036       C  0.50312196  0.90653125  0.08198502    -0.23000
C3037       C  0.97081751  0.87417492  0.08312537     0.20000
C3038       C  0.97046361  0.84197614  0.08322611     0.25100
C3039       C  0.50247068  0.84117834  0.08220497    -0.22900
C3040       C  0.53471131  0.87347960  0.08104202     0.20000
F3041       F  0.56617012  0.87411531  0.07999677    -0.12900
F3042       F  0.56677816  0.93608746  0.07975523    -0.15200
F3043       F  0.93864952  0.81165210  0.08432000    -0.15200
F3044       F  0.93932814  0.87347236  0.08421525    -0.12900
C3045       C  0.96685349  0.62220271  0.08347593     0.25100
C3046       C  0.49929702  0.65461049  0.08336229    -0.23000
C3047       C  0.53122579  0.65375614  0.08362354     0.20000
C3048       C  0.53085250  0.62156298  0.08396627     0.25100
C3049       C  0.49855692  0.58924000  0.08403076    -0.22900
C3050       C  0.96650926  0.58996877  0.08380182     0.20000
F3051       F  0.93469954  0.55955302  0.08387958    -0.12900
F3052       F  0.93533976  0.62153646  0.08328394    -0.15200
F3053       F  0.56240186  0.62229598  0.08421959    -0.15200
F3054       F  0.56310320  0.68409133  0.08350554    -0.12900
C3055       C  0.52609611  0.50156795  0.01029609     0.25100
C3056       C  0.49715267  0.49850213  0.02159248    -0.23000
C3057       C  0.97267380  0.99773207  0.01066973     0.20000
C3058       C  0.97195154  0.99755085  0.98924191     0.25100
C3059       C  0.49649172  0.49984061  0.97830059    -0.22900
C3060       C  0.52562850  0.50193826  0.98887699     0.20000
F3061       F  0.55409449  0.50511344  0.97848651    -0.12900
F3062       F  0.55471847  0.50363560  0.01994488    -0.15200
F3063       F  0.94305840  0.99473512  0.97952267    -0.15200
F3064       F  0.94481767  0.99603875  0.02101674    -0.12900
C3065       C  0.73193779  0.71493095  0.48909971     0.25100
C3066       C  0.74605832  0.74703280  0.47817184    -0.23000
C3067       C  0.76034332  0.77892336  0.48929087     0.20000
C3068       C  0.76118100  0.77884184  0.51067271     0.25100
C3069       C  0.74772043  0.74685756  0.52163462    -0.22900
C3070       C  0.73275037  0.71484477  0.51056504     0.20000
F3071       F  0.71892840  0.68328997  0.52042505    -0.12900
F3072       F  0.71752593  0.68346257  0.47909201    -0.15200
F3073       F  0.77527765  0.81039699  0.52056456    -0.15200
F3074       F  0.77368065  0.81054265  0.47955187    -0.12900
C3075       C  0.72473845  0.96515288  0.48874056     0.25100
C3076       C  0.74916211  0.49950988  0.47785844    -0.23000
C3077       C  0.77064977  0.53068746  0.48900585     0.20000
C3078       C  0.77067331  0.53036507  0.51041889     0.25100
C3079       C  0.74917392  0.49885527  0.52131067    -0.22900
C3080       C  0.72606810  0.96465326  0.51019982     0.20000
F3081       F  0.70218964  0.93498106  0.52025654    -0.12900
F3082       F  0.69964457  0.93596231  0.47881671    -0.15200
F3083       F  0.79222861  0.56105869  0.52042319    -0.15200
F3084       F  0.79213707  0.56165690  0.47924628    -0.12900
C3085       C  0.49879042  0.77572225  0.48959786     0.25100
C3086       C  0.49903139  0.74814140  0.47854262    -0.23000
C3087       C  0.00043789  0.72167025  0.48931930     0.20000
C3088       C  0.00046493  0.72141873  0.51076650     0.25100
C3089       C  0.49924582  0.74787501  0.52188037    -0.22900
C3090       C  0.49892951  0.77560478  0.51103933     0.20000
F3091       F  0.49777552  0.80219471  0.52118193    -0.12900
F3092       F  0.49741336  0.80237683  0.47967253    -0.15200
F3093       F  0.00197091  0.69481642  0.52066437    -0.15200
F3094       F  0.00185053  0.69526949  0.47911955    -0.12900
C3095       C  0.87453197  0.71806802  0.41713068     0.25100
C3096       C  0.90693968  0.75022408  0.41796875    -0.23000
C3097       C  0.90627657  0.78213116  0.41908164     0.20000
C3098       C  0.87407146  0.78189324  0.41908050     0.25100
C3099       C  0.84167208  0.74974302  0.41795782    -0.22900
C3100       C  0.84235301  0.71782739  0.41712291     0.20000
F3101       F  0.81188586  0.68613397  0.41613659    -0.12900
F3102       F  0.87372793  0.68658667  0.41611215    -0.15200
F3103       F  0.87483694  0.81335197  0.42015404    -0.15200
F3104       F  0.93677556  0.81377847  0.42021861    -0.12900
C3105       C  0.62352925  0.78036498  0.41913245     0.25100
C3106       C  0.59124929  0.74890465  0.41566186    -0.23000
C3107       C  0.59193979  0.71749847  0.41170428     0.20000
C3108       C  0.62405305  0.71753284  0.41137633     0.25100
C3109       C  0.65628200  0.74894207  0.41507007    -0.22900
C3110       C  0.65559472  0.78038492  0.41883159     0.20000
F3111       F  0.68593019  0.81130866  0.42256536    -0.12900
F3112       F  0.62426864  0.81127066  0.42312822    -0.15200
F3113       F  0.62343327  0.68671439  0.40726886    -0.15200
F3114       F  0.56156874  0.68659106  0.40799727    -0.12900
C3115       C  0.96866676  0.96966464  0.48924821     0.25100
C3116       C  0.49828782  0.49871357  0.47833027    -0.23000
C3117       C  0.52705862  0.52564126  0.48915046     0.20000
C3118       C  0.52774804  0.52521452  0.51054099     0.25100
C3119       C  0.49965319  0.49786395  0.52153882    -0.22900
C3120       C  0.97002652  0.96903709  0.51067875     0.20000
F3121       F  0.94179198  0.94351066  0.52106460    -0.12900
F3122       F  0.93926424  0.94462530  0.47943587    -0.15200
F3123       F  0.55634544  0.55120206  0.52047085    -0.15200
F3124       F  0.55504659  0.55196194  0.47900763    -0.12900
C3125       C  0.87356032  0.96998685  0.40862976     0.25100
C3126       C  0.90692863  0.50197552  0.41552259    -0.23000
C3127       C  0.90599321  0.53296304  0.42036832     0.20000
C3128       C  0.87391463  0.53306044  0.42020427     0.25100
C3129       C  0.84197115  0.50216036  0.41520850    -0.22900
C3130       C  0.84143509  0.96990574  0.40846257     0.20000
F3131       F  0.81213447  0.94094719  0.40109456    -0.12900
F3132       F  0.87416477  0.94112733  0.40135897    -0.15200
F3133       F  0.87418234  0.56333746  0.42538439    -0.15200
F3134       F  0.93601165  0.56314307  0.42570367    -0.12900
C3135       C  0.59026394  0.96801071  0.41032771     0.25100
C3136       C  0.59062701  0.49934663  0.41779393    -0.23000
C3137       C  0.62202647  0.52923488  0.42454673     0.20000
C3138       C  0.65418781  0.52941068  0.42429652     0.25100
C3139       C  0.65573609  0.49970286  0.41729886    -0.22900
C3140       C  0.62238931  0.96801150  0.41017255     0.20000
F3141       F  0.62262424  0.93880337  0.40319933    -0.12900
F3142       F  0.56059093  0.93874247  0.40359641    -0.15200
F3143       F  0.68371773  0.55855346  0.43128377    -0.15200
F3144       F  0.62163568  0.55823566  0.43176067    -0.12900
C3145       C  0.78443168  0.76837082  0.17693107     0.25100
C3146       C  0.75246954  0.75151222  0.18808027    -0.23000
C3147       C  0.72027263  0.73320928  0.17722880     0.20000
C3148       C  0.72000803  0.73182270  0.15583603     0.25100
C3149       C  0.75192718  0.74883114  0.14466125    -0.22900
C3150       C  0.78416829  0.76705026  0.15550608     0.20000
F3151       F  0.81565439  0.78391330  0.14545631    -0.12900
F3152       F  0.81613987  0.78652440  0.18667652    -0.15200
F3153       F  0.68825467  0.71363916  0.14614426    -0.15200
F3154       F  0.68876843  0.71627155  0.18725205    -0.12900
C3155       C  0.76642436  0.78489773  0.32241208     0.25100
C3156       C  0.75242216  0.75327117  0.31126960    -0.23000
C3157       C  0.73859012  0.72099902  0.32169197     0.20000
C3158       C  0.73877288  0.72021667  0.34310682     0.25100
C3159       C  0.75222775  0.75183124  0.35451801    -0.22900
C3160       C  0.76616065  0.78426028  0.34386189     0.20000
F3161       F  0.77926396  0.81541252  0.35410060    -0.12900
F3162       F  0.77949107  0.81633998  0.31249395    -0.15200
F3163       F  0.72597438  0.68843654  0.35257644    -0.15200
F3164       F  0.72564782  0.69022941  0.31106271    -0.12900
C3165       C  0.78680199  0.91140275  0.24854208     0.25100
C3166       C  0.75478856  0.91207869  0.24939274    -0.23000
C3167       C  0.72261399  0.87968139  0.25008674     0.20000
C3168       C  0.72238439  0.84756125  0.25009388     0.25100
C3169       C  0.75434693  0.84680596  0.24935063    -0.22900
C3170       C  0.78657014  0.87918836  0.24850156     0.20000
F3171       F  0.81809197  0.87992060  0.24762615    -0.12900
F3172       F  0.81849974  0.94187962  0.24765254    -0.15200
F3173       F  0.69059085  0.81718008  0.25083666    -0.15200
F3174       F  0.69100551  0.87878617  0.25082556    -0.12900
C3175       C  0.77879196  0.62500677  0.25686560     0.25100
C3176       C  0.74884904  0.59417859  0.24955303    -0.23000
C3177       C  0.71948521  0.59646447  0.24254909     0.20000
C3178       C  0.72012619  0.62887566  0.24275808     0.25100
C3179       C  0.75016487  0.65975317  0.25001419    -0.22900
C3180       C  0.77943065  0.65736112  0.25710135     0.20000
F3181       F  0.80857836  0.68622817  0.26467762    -0.12900
F3182       F  0.80733442  0.62380463  0.26425719    -0.15200
F3183       F  0.69157310  0.63007843  0.23538429    -0.15200
F3184       F  0.69041094  0.56751527  0.23497456    -0.12900
C3185       C  0.72688894  0.97334933  0.15578841     0.25100
C3186       C  0.74877893  0.49675982  0.14467063    -0.23000
C3187       C  0.77738532  0.52423470  0.15533958     0.20000
C3188       C  0.77718149  0.52551735  0.17673841     0.25100
C3189       C  0.74848749  0.49925288  0.18792018    -0.22900
C3190       C  0.72687460  0.97459745  0.17719011     0.20000
F3191       F  0.69244948  0.44510351  0.18761439    -0.12900
F3192       F  0.69276096  0.44266001  0.14613271    -0.15200
F3193       F  0.81077471  0.05695308  0.18629339    -0.15200
F3194       F  0.81093665  0.05449914  0.14480172    -0.12900
C3195       C  0.77233968  0.53321660  0.34338693     0.25100
C3196       C  0.74842987  0.50259747  0.35431304    -0.23000
C3197       C  0.72605072  0.97153701  0.34265098     0.20000
C3198       C  0.72749277  0.97235493  0.32125184     0.25100
C3199       C  0.74869562  0.50265200  0.31104918    -0.22900
C3200       C  0.77266669  0.53309032  0.32194049     0.20000
F3201       F  0.79587992  0.56299789  0.31180370    -0.12900
F3202       F  0.79580284  0.56317963  0.35339442    -0.15200
F3203       F  0.70544737  0.94260793  0.31058388    -0.15200
F3204       F  0.70206854  0.94108161  0.35201119    -0.12900
C3205       C  0.53382468  0.76875390  0.15568181     0.25100
C3206       C  0.50192881  0.74938701  0.14464749    -0.23000
C3207       C  0.96998733  0.73058047  0.15570696     0.20000
C3208       C  0.96988557  0.73166743  0.17711239     0.25100
C3209       C  0.50159193  0.75163677  0.18812370    -0.22900
C3210       C  0.53366195  0.76983387  0.17713614     0.20000
F3211       F  0.56504704  0.78896706  0.18707381    -0.12900
F3212       F  0.56534664  0.78700719  0.14578545    -0.15200
F3213       F  0.93841214  0.71288093  0.18698656    -0.15200
F3214       F  0.93857553  0.71096091  0.14587902    -0.12900
C3215       C  0.97017439  0.72465559  0.32262922     0.25100
C3216       C  0.49864100  0.75082912  0.31176850    -0.23000
C3217       C  0.52718949  0.77749567  0.32291179     0.20000
C3218       C  0.52689426  0.77722991  0.34434374     0.25100
C3219       C  0.49828359  0.75003218  0.35511504    -0.22900
C3220       C  0.97015094  0.72433570  0.34408583     0.20000
F3221       F  0.94191200  0.69800347  0.35405264    -0.12900
F3222       F  0.94229623  0.69815096  0.31250167    -0.15200
F3223       F  0.55509002  0.80321083  0.35454782    -0.15200
F3224       F  0.55527317  0.80424570  0.31308324    -0.12900
C3225       C  0.53261580  0.87724693  0.25273219     0.25100
C3226       C  0.50047700  0.84498718  0.25084700    -0.23000
C3227       C  0.96883789  0.84591789  0.24917824     0.20000
C3228       C  0.96913189  0.87812287  0.24935950     0.25100
C3229       C  0.00128833  0.91041486  0.25110520    -0.22900
C3230       C  0.53296471  0.90946463  0.25288815     0.20000
F3231       F  0.56465045  0.93975695  0.25474511    -0.12900
F3232       F  0.56399406  0.87786748  0.25452956    -0.15200
F3233       F  0.93772364  0.87746803  0.24764351    -0.15200
F3234       F  0.93718411  0.81558147  0.24733875    -0.12900
C3235       C  0.53247295  0.62749632  0.24819970     0.25100
C3236       C  0.00039268  0.59498476  0.24839006    -0.23000
C3237       C  0.96826245  0.59546043  0.24829173     0.20000
C3238       C  0.96826683  0.62748614  0.24865768     0.25100
C3239       C  0.50023144  0.65988401  0.24883979    -0.22900
C3240       C  0.53240760  0.65949933  0.24848562     0.20000
F3241       F  0.56405630  0.69009664  0.24843804    -0.12900
F3242       F  0.56418983  0.62858619  0.24790512    -0.15200
F3243       F  0.93657271  0.62645060  0.24873104    -0.15200
F3244       F  0.93657519  0.56492067  0.24790700    -0.12900
C3245       C  0.53103916  0.51971499  0.15593102     0.25100
C3246       C  0.49991272  0.49649282  0.14514400    -0.23000
C3247       C  0.97325629  0.97654785  0.15589219     0.20000
C3248       C  0.97309715  0.97760577  0.17729900     0.25100
C3249       C  0.50027823  0.49858552  0.18856507    -0.22900
C3250       C  0.53122452  0.52072151  0.17736252     0.20000
F3251       F  0.56166518  0.54400032  0.18707856    -0.12900
F3252       F  0.56129262  0.54215035  0.14579219    -0.15200
F3253       F  0.94241556  0.95584500  0.18728079    -0.15200
F3254       F  0.94269329  0.95388783  0.14606471    -0.12900
C3255       C  0.52826746  0.53167832  0.32299525     0.25100
C3256       C  0.50038829  0.50414476  0.31193113    -0.23000
C3257       C  0.97171170  0.97523485  0.32209250     0.20000
C3258       C  0.97121355  0.97414122  0.34351151     0.25100
C3259       C  0.50064964  0.50285129  0.35517953    -0.22900
C3260       C  0.52824988  0.53118611  0.34443943     0.20000
F3261       F  0.55564079  0.55806591  0.35466428    -0.12900
F3262       F  0.55528759  0.55938582  0.31307882    -0.15200
F3263       F  0.94344579  0.94664551  0.35310029    -0.15200
F3264       F  0.94482019  0.94831366  0.31160165    -0.12900
loop_ 
_geom_bond_atom_site_label_1 
_geom_bond_atom_site_label_2 
_geom_bond_distance 
_geom_bond_site_symmetry_2 
_ccdc_geom_bond_type 
O1          V825   1.898       .  S
O1         C1643   1.265   1_455  A
O2            V9   1.901       .  S
O2         C1644   1.265       .  A
O3            V9   1.899       .  S
O3           C13   1.264       .  A
O4            V9   1.899       .  S
O4           C14   1.265       .  A
O5           V10   1.898       .  S
O5         C2462   1.265       .  A
O6           V10   1.897       .  S
O6         C2461   1.264       .  A
O7          V826   1.898   1_545  S
O7           C12   1.265       .  A
O8           V10   1.896       .  S
O8           C11   1.264       .  A
V9          O817   1.900   1_545  S
V9         V2458   2.084   1_445  T
V10         O823   1.897       .  S
V10        V2457   2.085       .  T
C11        O1633   1.265       .  A
C11         C781   1.485       .  S
C12        O1634   1.265       .  A
C12         C788   1.488       .  S
C13        O2454   1.264   1_445  A
C13         C808   1.477       .  S
C14        O2453   1.264   1_445  A
C14         C801   1.483       .  S
O15          V23   1.901       .  S
O15          C25   1.265       .  A
O16          V23   1.897       .  S
O16          C26   1.265       .  A
O17          V23   1.899       .  S
O17          C27   1.264       .  A
O18          V23   1.901       .  S
O18          C28   1.265       .  A
O19          V24   1.897       .  S
O19        C1660   1.265       .  A
O20          V24   1.898       .  S
O20        C1659   1.264       .  A
O21          V24   1.900       .  S
O21        C1658   1.264       .  A
O22          V24   1.896       .  S
O22        C1657   1.265       .  A
V23        V1656   2.084   1_455  T
V24        V1655   2.084       .  T
C25        O1654   1.265   1_455  A
C25         C791   1.487       .  S
C26        O1653   1.264   1_455  A
C26         C778   1.486   1_455  S
C27        O1652   1.264   1_455  A
C27         C768   1.480       .  S
C28        O1651   1.265   1_455  A
C28         C761   1.487       .  S
O29         V853   1.899       .  S
O29          C39   1.264       .  A
O30          V37   1.898       .  S
O30          C40   1.264       .  A
O31          V37   1.901       .  S
O31          C41   1.264       .  A
O32          V37   1.900       .  S
O32          C42   1.265       .  A
O33          V38   1.896       .  S
O33         C858   1.264       .  A
O34          V38   1.896       .  S
O34         C857   1.264       .  A
O35         V854   1.901   1_545  S
O35          C40   1.265       .  A
O36          V38   1.900       .  S
O36          C39   1.266       .  A
V37         O845   1.903   1_545  S
V37         V854   2.086   1_545  T
V38         O851   1.905       .  S
V38         V853   2.086       .  T
C39         C718   1.488       .  S
C40         C728   1.485       .  S
C41         O850   1.263   1_545  A
C41         C751   1.472       .  S
C42         O849   1.263   1_545  A
C42         C741   1.477       .  S
O43          V51   1.902       .  S
O43          C53   1.266       .  A
O44          V51   1.899       .  S
O44          C54   1.265       .  A
O45          V51   1.898       .  S
O45          C55   1.263       .  A
O46          V51   1.899       .  S
O46          C56   1.264       .  A
O47          V52   1.898       .  S
O47          C56   1.265       .  A
O48          V52   1.900       .  S
O48          C55   1.264       .  A
O49          V52   1.900       .  S
O49          C54   1.265       .  A
O50          V52   1.897       .  S
O50          C53   1.264       .  A
V51          V52   2.084       .  T
C53         C731   1.485       .  S
C54         C721   1.488       .  S
C55         C708   1.467       .  S
C56         C698   1.486       .  S
O57          V65   1.897       .  S
O57        C2515   1.264       .  A
O58          V65   1.895       .  S
O58        C2516   1.264       .  A
O59        V1697   1.899   1_455  S
O59         C885   1.265       .  A
O60          V65   1.896       .  S
O60         C886   1.264       .  A
O61        V1698   1.900       .  S
O61          C70   1.265   1_545  A
O62          V66   1.896       .  S
O62          C69   1.264   1_545  A
O63          V66   1.897       .  S
O63          C68   1.264   1_455  A
O64          V66   1.894       .  S
O64          C67   1.263   1_445  A
V65        O1691   1.899       .  S
V65        V2514   2.086       .  T
V66        O1693   1.900   1_455  S
V66        V2513   2.086   1_445  T
C67        O2505   1.264       .  A
C67         C668   1.475       .  S
C68        O2506   1.264   1_545  A
C68         C811   1.477       .  S
C69         O875   1.265       .  A
C69         C688   1.482       .  S
C70         O876   1.264       .  A
C70         C678   1.481       .  S
O71        V1711   1.893   1_455  S
O71          C81   1.264       .  A
O72          V79   1.894       .  S
O72          C82   1.264       .  A
O73          V79   1.897       .  S
O73        C1715   1.264       .  A
O74          V79   1.899       .  S
O74        C1716   1.264       .  A
O75          V80   1.898       .  S
O75          C84   1.265   1_455  A
O76          V80   1.899       .  S
O76          C83   1.264   1_455  A
O77        V1712   1.897       .  S
O77          C82   1.265       .  A
O78          V80   1.897       .  S
O78          C81   1.264       .  A
V79        O1703   1.892       .  S
V79        V1712   2.084       .  T
V80        O1709   1.898   1_455  S
V80        V1711   2.084   1_455  T
C81         C658   1.482       .  S
C82         C648   1.483       .  S
C83        O1705   1.264       .  A
C83         C771   1.477       .  S
C84        O1706   1.264       .  A
C84         C638   1.479       .  S
O85          V93   1.897       .  S
O85          C95   1.265   1_545  A
O86          V93   1.899       .  S
O86          C96   1.264       .  A
O87          V93   1.898       .  S
O87          C97   1.265   1_545  A
O88          V93   1.896       .  S
O88          C98   1.264   1_545  A
O89          V94   1.896       .  S
O89         C914   1.264       .  A
O90          V94   1.896       .  S
O90         C913   1.264       .  A
O91          V94   1.895       .  S
O91         C912   1.264       .  A
O92          V94   1.898       .  S
O92         C911   1.264       .  A
V93         V910   2.085   1_545  T
V94         V909   2.085       .  T
C95         O908   1.265       .  A
C95         C628   1.483       .  S
C96         O907   1.264   1_545  A
C96         C748   1.482       .  S
C97         O906   1.265       .  A
C97         C691   1.483       .  S
C98         O905   1.265       .  A
C98         C681   1.481       .  S
O99         V107   1.897       .  S
O99         C109   1.265       .  A
O100        V107   1.900       .  S
O100        C110   1.265       .  A
O101        V107   1.893       .  S
O101        C111   1.263       .  A
O102        V107   1.892       .  S
O102        C112   1.263       .  A
O103        V108   1.898       .  S
O103        C112   1.265       .  A
O104        V108   1.898       .  S
O104        C111   1.265       .  A
O105        V108   1.896       .  S
O105        C110   1.264       .  A
O106        V108   1.898       .  S
O106        C109   1.264       .  A
V107        V108   2.084       .  T
C109        C618   1.481       .  S
C110        C711   1.485       .  S
C111        C661   1.483       .  S
C112        C651   1.483       .  S
O113        V121   1.899       .  S
O113       C2571   1.264       .  A
O114        V121   1.899       .  S
O114       C2572   1.265       .  A
O115        V937   1.896   1_545  S
O115       C1757   1.264       .  A
O116        V121   1.901       .  S
O116       C1758   1.265       .  A
O117        V938   1.896       .  S
O117        C126   1.264   1_455  A
O118        V122   1.902       .  S
O118        C125   1.266       .  A
O119        V122   1.899       .  S
O119        C124   1.264   1_545  A
O120        V122   1.899       .  S
O120        C123   1.264   1_545  A
V121        O931   1.900       .  S
V121       V2570   2.084       .  T
V122        O933   1.901   1_545  S
V122       V2569   2.084   1_445  T
C123       O2561   1.264   1_455  A
C123        C608   1.480   1_565  S
C124       O2562   1.265   1_455  A
C124        C798   1.484       .  S
C125       O1747   1.264   1_455  A
C125        C601   1.487       .  S
C126       O1748   1.265       .  A
C126        C588   1.486       .  S
O127        V135   1.900       .  S
O127       C1769   1.264       .  A
O128        V135   1.901       .  S
O128       C1770   1.265       .  A
O129        V135   1.899       .  S
O129        C139   1.265       .  A
O130        V135   1.900       .  S
O130        C140   1.265       .  A
O131        V136   1.896       .  S
O131       C1772   1.264       .  A
O132        V136   1.899       .  S
O132       C1771   1.265       .  A
O133        V136   1.898       .  S
O133        C138   1.265       .  A
O134        V136   1.898       .  S
O134        C137   1.264       .  A
V135       V1768   2.084   1_455  T
V136       V1767   2.084       .  T
C137       O1759   1.264       .  A
C137       C2213   1.477       .  S
C138       O1760   1.265       .  A
C138       C2390   1.488       .  S
C139       O1764   1.265   1_455  A
C139        C598   1.488       .  S
C140       O1763   1.264   1_455  A
C140        C591   1.486       .  S
O141        V965   1.896       .  S
O141        C151   1.264       .  A
O142        V149   1.903       .  S
O142        C152   1.266       .  A
O143        V149   1.897       .  S
O143        C153   1.264   1_545  A
O144        V149   1.897       .  S
O144        C154   1.262   1_545  A
O145        V150   1.899       .  S
O145        C970   1.263       .  A
O146        V150   1.897       .  S
O146        C969   1.264       .  A
O147        V966   1.896   1_545  S
O147        C152   1.264       .  A
O148        V150   1.901       .  S
O148        C151   1.265       .  A
V149        O957   1.902   1_545  S
V149        V966   2.086   1_545  T
V150        O963   1.900       .  S
V150        V965   2.086       .  T
C151        C548   1.483       .  S
C152        C561   1.487       .  S
C153        O962   1.264       .  A
C153        C738   1.478   1_565  S
C154        O961   1.263       .  A
C154        C568   1.463       .  S
O155        V163   1.899       .  S
O155        C165   1.265       .  A
O156        V163   1.897       .  S
O156        C166   1.265       .  A
O157        V163   1.899       .  S
O157        C167   1.264       .  A
O158        V163   1.898       .  S
O158        C168   1.265       .  A
O159        V164   1.900       .  S
O159        C168   1.265       .  A
O160        V164   1.898       .  S
O160        C167   1.265       .  A
O161        V164   1.899       .  S
O161        C166   1.265       .  A
O162        V164   1.897       .  S
O162        C165   1.264       .  A
V163        V164   2.084       .  T
C165        C541   1.486       .  S
C166        C701   1.486       .  S
C167        C551   1.483       .  S
C168        C558   1.488       .  S
O169       V1809   1.898   1_455  S
O169        C179   1.265       .  A
O170        V993   1.902       .  S
O170        C180   1.266       .  A
O171        V177   1.898       .  S
O171       C1813   1.264   1_545  A
O172        V177   1.900       .  S
O172       C1814   1.264   1_545  A
O173        V178   1.895       .  S
O173        C998   1.264   1_455  A
O174        V178   1.896       .  S
O174        C997   1.264   1_455  A
O175       V1810   1.894       .  S
O175        C180   1.264       .  A
O176        V994   1.896   1_545  S
O176        C179   1.264       .  A
V177       O1801   1.898       .  S
V177        O986   1.897   1_545  S
V177       V2626   2.084   1_545  T
V178       O1807   1.894   1_455  S
V178        O992   1.892       .  S
V178       V2625   2.084   1_455  T
C179        C521   1.484       .  S
C180        C508   1.487       .  S
C181       O1803   1.264   1_565  A
C181        O990   1.264   1_655  A
C181        C611   1.476   1_655  S
C182       O1804   1.264   1_565  A
C182        O989   1.264   1_655  A
C182        C528   1.484       .  S
O183        V191   1.893       .  S
O183        C193   1.264       .  A
O184       V1823   1.899       .  S
O184        C194   1.265       .  A
O185        V191   1.897       .  S
O185        C195   1.264   1_455  A
O186        V191   1.898       .  S
O186        C196   1.264   1_455  A
O187        V192   1.898       .  S
O187       C1828   1.264       .  A
O188        V192   1.900       .  S
O188       C1827   1.264       .  A
O189        V192   1.895       .  S
O189        C194   1.264       .  A
O190       V1824   1.900   1_455  S
O190        C193   1.265       .  A
V191       O1816   1.899   1_455  S
V191       V1824   2.085   1_455  T
V192       O1822   1.900       .  S
V192       V1823   2.085       .  T
C193        C488   1.485       .  S
C194        C478   1.485       .  S
C195       O1820   1.264       .  A
C195        C498   1.474       .  S
C196       O1819   1.264       .  A
C196        C578   1.479       .  S
O197        V205   1.899       .  S
O197        C207   1.265   1_545  A
O198        V205   1.901       .  S
O198        C208   1.265   1_545  A
O199       V1021   1.898       .  S
O199        C209   1.264       .  A
O200        V205   1.894       .  S
O200        C210   1.264       .  A
O201       V1022   1.900   1_545  S
O201        C210   1.265       .  A
O202        V206   1.897       .  S
O202        C209   1.265       .  A
O203        V206   1.896       .  S
O203       C1024   1.264       .  A
O204        V206   1.896       .  S
O204       C1023   1.264       .  A
V205       O1015   1.898   1_545  S
V205       V1022   2.084   1_545  T
V206       O1017   1.900       .  S
V206       V1021   2.084       .  T
C207       O1020   1.264       .  A
C207        C571   1.481       .  S
C208       O1019   1.264       .  A
C208        C468   1.480       .  S
C209        C491   1.486       .  S
C210        C481   1.485       .  S
O211        V219   1.898       .  S
O211        C221   1.264       .  A
O212        V219   1.892       .  S
O212        C222   1.263       .  A
O213        V219   1.899       .  S
O213        C223   1.263       .  A
O214        V219   1.897       .  S
O214        C224   1.265       .  A
O215        V220   1.897       .  S
O215        C224   1.264       .  A
O216        V220   1.897       .  S
O216        C223   1.263       .  A
O217        V220   1.902       .  S
O217        C222   1.266       .  A
O218        V220   1.899       .  S
O218        C221   1.265       .  A
V219        V220   2.084       .  T
C221        C511   1.486       .  S
C222        C518   1.485       .  S
C223        C538   1.468       .  S
C224        C458   1.485       .  S
O225        V233   1.893       .  S
O225        C235   1.263   1_545  A
O226        V233   1.893       .  S
O226        C236   1.262   1_545  A
O227        V233   1.897       .  S
O227        C237   1.265   1_545  A
O228       V1865   1.894       .  S
O228        C238   1.264   1_545  A
O229        V234   1.897       .  S
O229       C1054   1.265       .  A
O230       V1866   1.896   1_455  S
O230       C1053   1.264       .  A
O231        V234   1.897       .  S
O231       C2684   1.264       .  A
O232        V234   1.898       .  S
O232       C2683   1.264       .  A
V233       O1860   1.894   1_455  S
V233       V2682   2.084   1_445  T
V234       O1862   1.896       .  S
V234       V2681   2.084       .  T
C235       O2680   1.265   1_455  A
C235        C671   1.476   1_455  S
C236       O2679   1.265   1_455  A
C236        C448   1.471       .  S
C237       O1046   1.264       .  A
C237        C438   1.483       .  S
C238       O1045   1.264       .  A
C238        C431   1.482       .  S
O239        V247   1.896       .  S
O239        C249   1.264       .  A
O240       V1879   1.898   1_455  S
O240        C250   1.264       .  A
O241        V247   1.903       .  S
O241       C1883   1.265       .  A
O242        V247   1.902       .  S
O242       C1884   1.265       .  A
O243        V248   1.895       .  S
O243        C252   1.264       .  A
O244        V248   1.895       .  S
O244        C251   1.264       .  A
O245        V248   1.894       .  S
O245        C250   1.264       .  A
O246       V1880   1.895       .  S
O246        C249   1.264       .  A
V247       O1872   1.897       .  S
V247       V1880   2.084       .  T
V248       O1878   1.895   1_455  S
V248       V1879   2.084   1_455  T
C249        C398   1.483       .  S
C250        C408   1.481       .  S
C251       O1873   1.265   1_455  A
C251        C418   1.480       .  S
C252       O1874   1.265   1_455  A
C252        C641   1.479       .  S
O253        V261   1.897       .  S
O253       C1079   1.264       .  A
O254        V261   1.895       .  S
O254       C1080   1.264       .  A
O255        V261   1.899       .  S
O255       C1081   1.264       .  A
O256        V261   1.902       .  S
O256       C1082   1.265       .  A
O257        V262   1.896       .  S
O257        C266   1.264   1_545  A
O258        V262   1.898       .  S
O258        C265   1.264   1_545  A
O259        V262   1.895       .  S
O259        C264   1.264   1_545  A
O260        V262   1.895       .  S
O260        C263   1.264   1_545  A
V261       V1078   2.085       .  T
V262       V1077   2.085   1_545  T
C263       O1069   1.264       .  A
C263        C441   1.484       .  S
C264       O1070   1.264       .  A
C264        C428   1.481       .  S
C265       O1071   1.265       .  A
C265        C391   1.476       .  S
C266       O1072   1.265       .  A
C266        C631   1.485       .  S
O267        V275   1.891       .  S
O267        C277   1.263       .  A
O268        V275   1.894       .  S
O268        C278   1.262       .  A
O269        V275   1.897       .  S
O269        C279   1.264       .  A
O270        V275   1.898       .  S
O270        C280   1.265       .  A
O271        V276   1.893       .  S
O271        C280   1.263       .  A
O272        V276   1.895       .  S
O272        C279   1.264       .  A
O273        V276   1.901       .  S
O273        C278   1.265       .  A
O274        V276   1.903       .  S
O274        C277   1.265       .  A
V275        V276   2.084       .  T
C277        C621   1.481       .  S
C278        C378   1.471       .  S
C279        C401   1.484       .  S
C280        C411   1.482       .  S
O281       V1921   1.896       .  S
O281        C291   1.265       .  A
O282       V1105   1.906   1_545  S
O282        C292   1.266       .  A
O283        V289   1.894       .  S
O283       C1109   1.264   1_455  A
O284        V289   1.895       .  S
O284       C1110   1.264   1_455  A
O285        V290   1.899       .  S
O285       C1926   1.265       .  A
O286        V290   1.902       .  S
O286       C1925   1.265       .  A
O287       V1922   1.893   1_455  S
O287        C292   1.263       .  A
O288       V1106   1.900       .  S
O288        C291   1.265       .  A
V289       O1913   1.896   1_455  S
V289       O1098   1.900       .  S
V289       V2738   2.084   1_455  T
V290       O1919   1.893       .  S
V290       O1104   1.895   1_545  S
V290       V2737   2.084   1_545  T
C291        C358   1.486       .  S
C292        C368   1.483       .  S
C293       O1099   1.263   1_545  A
C293       O1918   1.265   1_455  A
C293        C531   1.484       .  S
C294       O1100   1.263   1_545  A
C294       O1917   1.265   1_455  A
C294        C451   1.481       .  S
O295        V303   1.895       .  S
O295        C305   1.265       .  A
O296       V1935   1.902   1_455  S
O296        C306   1.265       .  A
O297        V303   1.898       .  S
O297       C1939   1.263       .  A
O298        V303   1.899       .  S
O298       C1940   1.264       .  A
O299        V304   1.898       .  S
O299        C308   1.264       .  A
O300        V304   1.899       .  S
O300        C307   1.263       .  A
O301        V304   1.895       .  S
O301        C306   1.264       .  A
O302       V1936   1.898       .  S
O302        C305   1.264       .  A
V303       O1928   1.902       .  S
V303       V1936   2.086       .  T
V304       O1934   1.898   1_455  S
V304       V1935   2.086   1_455  T
C305        C338   1.484       .  S
C306        C351   1.487       .  S
C307       O1929   1.263   1_455  A
C307        C421   1.464       .  S
C308       O1930   1.264   1_455  A
C308        C501   1.474   1_455  S
O309       V1133   1.901       .  S
O309        C319   1.265       .  A
O310        V317   1.893       .  S
O310        C320   1.264       .  A
O311        V317   1.902       .  S
O311       C1137   1.265       .  A
O312        V317   1.901       .  S
O312       C1138   1.265       .  A
O313        V318   1.896       .  S
O313        C322   1.264       .  A
O314        V318   1.897       .  S
O314        C321   1.264       .  A
O315       V1134   1.900   1_545  S
O315        C320   1.265       .  A
O316        V318   1.896       .  S
O316        C319   1.265       .  A
V317       O1125   1.898   1_545  S
V317       V1134   2.084   1_545  T
V318       O1131   1.900       .  S
V318       V1133   2.084       .  T
C319        C348   1.487       .  S
C320        C341   1.485       .  S
C321       O1127   1.265       .  A
C321        C388   1.481       .  S
C322       O1128   1.264       .  A
C322       C1287   1.480       .  S
O323        V331   1.899       .  S
O323        C333   1.264       .  A
O324        V331   1.893       .  S
O324        C334   1.264       .  A
O325        V331   1.894       .  S
O325        C335   1.264       .  A
O326        V331   1.895       .  S
O326        C336   1.262       .  A
O327        V332   1.899       .  S
O327        C336   1.263       .  A
O328        V332   1.900       .  S
O328        C335   1.265       .  A
O329        V332   1.904       .  S
O329        C334   1.265       .  A
O330        V332   1.899       .  S
O330        C333   1.265       .  A
V331        V332   2.086       .  T
C333        C371   1.481       .  S
C334        C361   1.487       .  S
C335        C461   1.485       .  S
C336        C381   1.463       .  S
C337        C338   1.408       .  A
C337        C342   1.395       .  A
C337        F344   1.358       .  S
C338        C339   1.410       .  A
C339        C340   1.399       .  A
C339        F346   1.358       .  S
C340        C341   1.409       .  A
C340        F345   1.358       .  S
C341        C342   1.409       .  A
C342        F343   1.358       .  S
C347        C348   1.409       .  A
C347        C352   1.396       .  A
C347        F354   1.358       .  S
C348        C349   1.410       .  A
C349        C350   1.400       .  A
C349        F356   1.358       .  S
C350        C351   1.410       .  A
C350        F355   1.358       .  S
C351        C352   1.409       .  A
C352        F353   1.358       .  S
C357        C358   1.410       .  A
C357        C362   1.401       .  A
C357        F364   1.358       .  S
C358        C359   1.408       .  A
C359        C360   1.395       .  A
C359        F366   1.358       .  S
C360        C361   1.409       .  A
C360        F365   1.358       .  S
C361        C362   1.410       .  A
C362        F363   1.358       .  S
C367        C368   1.408       .  A
C367        C372   1.401       .  A
C367        F374   1.358       .  S
C368        C369   1.409       .  A
C369        C370   1.397       .  A
C369        F376   1.358       .  S
C370        C371   1.406       .  A
C370        F375   1.358       .  S
C371        C372   1.408       .  A
C372        F373   1.358       .  S
C377        C378   1.406       .  A
C377        C382   1.398       .  A
C377        F384   1.358       .  S
C378        C379   1.407       .  A
C379        C380   1.398       .  A
C379        F386   1.358       .  S
C380        C381   1.402       .  A
C380        F385   1.358       .  S
C381        C382   1.401       .  A
C382        F383   1.358       .  S
C387        C388   1.409       .  A
C387        C392   1.398       .  A
C387        F394   1.358       .  S
C388       C1205   1.409       .  A
C389        C390   1.399       .  A
C389       C1204   1.409       .  A
C389        F396   1.358       .  S
C390        C391   1.406   1_545  A
C390        F395   1.358       .  S
C391       C1208   1.404       .  A
C392       C1207   1.404       .  A
C392        F393   1.358       .  S
C397        C398   1.409       .  A
C397        C402   1.397       .  A
C397        F404   1.358       .  S
C398        C399   1.409       .  A
C399        C400   1.397       .  A
C399        F406   1.358       .  S
C400        C401   1.409       .  A
C400        F405   1.358       .  S
C401        C402   1.409       .  A
C402        F403   1.358       .  S
C407        C408   1.408       .  A
C407        C412   1.397       .  A
C407        F414   1.358       .  S
C408        C409   1.408       .  A
C409        C410   1.396       .  A
C409        F416   1.358       .  S
C410        C411   1.408       .  A
C410        F415   1.358       .  S
C411        C412   1.409       .  A
C412        F413   1.358       .  S
C417        C422   1.400       .  A
C417       C2050   1.409       .  A
C417        F424   1.358       .  S
C418        C419   1.410       .  A
C418       C2049   1.409   1_455  A
C419        C420   1.398       .  A
C419        F426   1.358       .  S
C420        C421   1.400       .  A
C420        F425   1.358       .  S
C421       C2054   1.402   1_455  A
C422       C2053   1.402       .  A
C422        F423   1.358       .  S
C427        C428   1.408   1_545  A
C427        C432   1.396       .  A
C427        F434   1.358       .  S
C428       C1245   1.409       .  A
C429        C430   1.397       .  A
C429       C1244   1.408       .  A
C429        F436   1.358       .  S
C430       C1247   1.409       .  A
C430        F435   1.358       .  S
C431        C432   1.409   1_565  A
C431       C1246   1.409       .  A
C432        F433   1.358       .  S
C437        C438   1.409   1_545  A
C437        C442   1.397       .  A
C437        F444   1.358       .  S
C438       C1255   1.409       .  A
C439        C440   1.397       .  A
C439       C1254   1.409       .  A
C439        F446   1.358       .  S
C440       C1257   1.409       .  A
C440        F445   1.358       .  S
C441        C442   1.409   1_565  A
C441       C1256   1.409       .  A
C442        F443   1.358       .  S
C447        C452   1.397       .  A
C447       C2896   1.402       .  A
C447        F454   1.358       .  S
C448        C449   1.404   1_465  A
C448       C2895   1.403       .  A
C449        C450   1.397       .  A
C449        F456   1.358       .  S
C450        C451   1.409   1_655  A
C450        F455   1.358       .  S
C451       C2900   1.411   1_545  A
C452       C2899   1.411       .  A
C452        F453   1.358       .  S
C457        C458   1.409       .  A
C457        C462   1.397       .  A
C457        F464   1.358       .  S
C458        C459   1.409       .  A
C459        C460   1.398       .  A
C459        F466   1.358       .  S
C460        C461   1.409       .  A
C460        F465   1.358       .  S
C461        C462   1.410       .  A
C462        F463   1.358       .  S
C467        C472   1.398       .  A
C467       C1284   1.408       .  A
C467        F474   1.358       .  S
C468        C469   1.407       .  A
C468       C1283   1.408   1_565  A
C469        C470   1.397       .  A
C469        F476   1.358       .  S
C470        C471   1.408   1_565  A
C470        F475   1.358       .  S
C471       C1138   1.480       .  S
C471       C1288   1.408       .  A
C472       C1287   1.408       .  A
C472        F473   1.358       .  S
C477        C478   1.410       .  A
C477        C482   1.399       .  A
C477        F484   1.358       .  S
C478        C479   1.409       .  A
C479        C480   1.396       .  A
C479        F486   1.358       .  S
C480        C481   1.409       .  A
C480        F485   1.358       .  S
C481        C482   1.409       .  A
C482        F483   1.358       .  S
C487        C488   1.409       .  A
C487        C492   1.399       .  A
C487        F494   1.358       .  S
C488        C489   1.409       .  A
C489        C490   1.397       .  A
C489        F496   1.358       .  S
C490        C491   1.409       .  A
C490        F495   1.358       .  S
C491        C492   1.410       .  A
C492        F493   1.358       .  S
C497        C498   1.405   1_455  A
C497        C502   1.397       .  A
C497        F504   1.358       .  S
C498       C2131   1.406       .  A
C499        C500   1.400       .  A
C499       C2130   1.406       .  A
C499        F506   1.358       .  S
C500       C2133   1.407       .  A
C500        F505   1.358       .  S
C501        C502   1.405   1_655  A
C501       C2132   1.407       .  A
C502        F503   1.358       .  S
C507        C508   1.409       .  A
C507        C512   1.399       .  A
C507        F514   1.358       .  S
C508        C509   1.410       .  A
C509        C510   1.397       .  A
C509        F516   1.358       .  S
C510        C511   1.408       .  A
C510        F515   1.358       .  S
C511        C512   1.410       .  A
C512        F513   1.358       .  S
C517        C518   1.410       .  A
C517        C522   1.397       .  A
C517        F524   1.358       .  S
C518        C519   1.409       .  A
C519        C520   1.398       .  A
C519        F526   1.358       .  S
C520        C521   1.410       .  A
C520        F525   1.358       .  S
C521        C522   1.408       .  A
C522        F523   1.358       .  S
C527        C532   1.400       .  A
C527       C2160   1.410   1_545  A
C527        F534   1.358       .  S
C528       C2159   1.410   1_565  A
C528       C1345   1.408   1_655  A
C529        C530   1.396       .  A
C529       C1344   1.408   1_455  A
C529        F536   1.358       .  S
C530       C1347   1.409   1_455  A
C530        F535   1.358       .  S
C531       C1346   1.409   1_545  A
C531       C2164   1.409   1_455  A
C532       C2163   1.409       .  A
C532        F533   1.358       .  S
C537        C538   1.401       .  A
C537        C542   1.398   1_556  A
C537        F544   1.358       .  S
C538        C539   1.402       .  A
C539        C540   1.399   1_556  A
C539        F546   1.358       .  S
C540        C541   1.412       .  A
C540        F545   1.358       .  S
C541        C542   1.412       .  A
C542        F543   1.358       .  S
C547        C548   1.408       .  A
C547        C552   1.397       .  A
C547        F554   1.358       .  S
C548        C549   1.408       .  A
C549        C550   1.400       .  A
C549        F556   1.358       .  S
C550        C551   1.409       .  A
C550        F555   1.358       .  S
C551        C552   1.408       .  A
C552        F553   1.358       .  S
C557        C558   1.409       .  A
C557        C562   1.398       .  A
C557        F564   1.358       .  S
C558        C559   1.410       .  A
C559        C560   1.400       .  A
C559        F566   1.358       .  S
C560        C561   1.409       .  A
C560        F565   1.358       .  S
C561        C562   1.410       .  A
C562        F563   1.358       .  S
C567        C572   1.398   1_554  A
C567       C1384   1.400       .  A
C567        F574   1.358       .  S
C568        C569   1.401   1_565  A
C568       C1383   1.400       .  A
C569        C570   1.399   1_554  A
C569        F576   1.358       .  S
C570        C571   1.411   1_545  A
C570        F575   1.358       .  S
C571       C1388   1.411       .  A
C572       C1387   1.411       .  A
C572        F573   1.358       .  S
C577        C582   1.398   1_556  A
C577       C2210   1.408       .  A
C577        F584   1.358       .  S
C578        C579   1.408   1_655  A
C578       C2209   1.408       .  A
C579        C580   1.399   1_556  A
C579        F586   1.358       .  S
C580        C581   1.406   1_455  A
C580        F585   1.358       .  S
C581       C1769   1.477   1_655  S
C581       C2214   1.406       .  A
C582       C2213   1.406       .  A
C582        F583   1.358       .  S
C587        C588   1.410   1_455  A
C587        C592   1.398       .  A
C587        F594   1.358       .  S
C588       C2221   1.409       .  A
C589        C590   1.398       .  A
C589       C2220   1.409       .  A
C589        F596   1.358       .  S
C590       C2223   1.410       .  A
C590        F595   1.358       .  S
C591        C592   1.409       .  A
C591       C2222   1.410   1_455  A
C592        F593   1.358       .  S
C597        C602   1.398       .  A
C597       C2230   1.409       .  A
C597        F604   1.358       .  S
C598        C599   1.410       .  A
C598       C2229   1.409   1_455  A
C599        C600   1.399       .  A
C599        F606   1.358       .  S
C600        C601   1.409       .  A
C600        F605   1.358       .  S
C601       C2234   1.410   1_455  A
C602       C2233   1.410       .  A
C602        F603   1.358       .  S
C607        C608   1.408       .  A
C607        C612   1.399   1_554  A
C607        F614   1.358       .  S
C608       C3057   1.408   1_445  A
C609        C610   1.399   1_554  A
C609       C3056   1.409       .  A
C609        F616   1.358       .  S
C610       C3059   1.406       .  A
C610        F615   1.358       .  S
C611        C612   1.407   1_565  A
C611       C3058   1.405   1_455  A
C612        F613   1.358       .  S
C617        C618   1.409       .  A
C617        C622   1.400       .  A
C617        F624   1.358       .  S
C618        C619   1.406       .  A
C619        C620   1.395       .  A
C619        F626   1.358       .  S
C620        C621   1.408       .  A
C620        F625   1.358       .  S
C621        C622   1.408       .  A
C622        F623   1.358       .  S
C627        C632   1.399       .  A
C627       C1444   1.409       .  A
C627        F634   1.358       .  S
C628        C629   1.408   1_565  A
C628       C1443   1.409       .  A
C629        C630   1.397       .  A
C629        F636   1.358       .  S
C630        C631   1.408   1_545  A
C630        F635   1.358       .  S
C631       C1448   1.409       .  A
C632       C1447   1.409       .  A
C632        F633   1.358       .  S
C637        C638   1.406   1_455  A
C637        C642   1.397       .  A
C637        F644   1.358   1_455  S
C638       C2271   1.408   1_655  A
C639        C640   1.400       .  A
C639       C2270   1.408       .  A
C639        F646   1.358       .  S
C640       C2273   1.407       .  A
C640        F645   1.358       .  S
C641        C642   1.407       .  A
C641       C2272   1.407       .  A
C642        F643   1.358   1_455  S
C647        C648   1.410       .  A
C647        C652   1.397       .  A
C647        F654   1.358       .  S
C648        C649   1.408       .  A
C649        C650   1.396       .  A
C649        F656   1.358       .  S
C650        C651   1.409       .  A
C650        F655   1.358       .  S
C651        C652   1.408       .  A
C652        F653   1.358       .  S
C657        C658   1.409       .  A
C657        C662   1.397       .  A
C657        F664   1.358       .  S
C658        C659   1.409       .  A
C659        C660   1.396       .  A
C659        F666   1.358       .  S
C660        C661   1.408       .  A
C660        F665   1.358       .  S
C661        C662   1.410       .  A
C662        F663   1.358       .  S
C667        C672   1.398       .  A
C667       C3116   1.406       .  A
C667        F674   1.358       .  S
C668        C669   1.406   1_665  A
C668       C3115   1.406       .  A
C669        C670   1.396       .  A
C669        F676   1.358       .  S
C670        C671   1.406   1_445  A
C670        F675   1.358       .  S
C671       C3120   1.407       .  A
C672       C3119   1.407       .  A
C672        F673   1.358       .  S
C677        C682   1.397       .  A
C677       C1494   1.409       .  A
C677        F684   1.358       .  S
C678        C679   1.407   1_565  A
C678       C1493   1.408       .  A
C679        C680   1.398       .  A
C679        F686   1.358       .  S
C680        C681   1.409   1_545  A
C680        F685   1.358       .  S
C681       C1498   1.407       .  A
C682       C1497   1.408       .  A
C682        F683   1.358       .  S
C687        C692   1.398       .  A
C687       C1504   1.408       .  A
C687        F694   1.358       .  S
C688        C689   1.408   1_565  A
C688       C1503   1.408       .  A
C689        C690   1.397       .  A
C689        F696   1.358       .  S
C690        C691   1.408   1_545  A
C690        F695   1.358       .  S
C691       C1508   1.409       .  A
C692       C1507   1.409       .  A
C692        F693   1.358       .  S
C697        C698   1.410       .  A
C697        C702   1.399       .  A
C697        F704   1.358       .  S
C698        C699   1.409       .  A
C699        C700   1.397       .  A
C699        F706   1.358       .  S
C700        C701   1.409       .  A
C700        F705   1.358       .  S
C701        C702   1.410       .  A
C702        F703   1.358       .  S
C707        C708   1.402       .  A
C707        C712   1.400       .  A
C707        F714   1.358       .  S
C708        C709   1.400       .  A
C709        C710   1.397       .  A
C709        F716   1.358       .  S
C710        C711   1.412       .  A
C710        F715   1.358       .  S
C711        C712   1.412       .  A
C712        F713   1.358       .  S
C717        C718   1.410       .  A
C717        C722   1.399       .  A
C717        F724   1.358       .  S
C718        C719   1.409       .  A
C719        C720   1.399       .  A
C719        F726   1.358       .  S
C720        C721   1.410       .  A
C720        F725   1.358       .  S
C721        C722   1.409       .  A
C722        F723   1.358       .  S
C727        C728   1.409       .  A
C727        C732   1.399       .  A
C727        F734   1.358       .  S
C728        C729   1.408       .  A
C729        C730   1.399       .  A
C729        F736   1.358       .  S
C730        C731   1.410       .  A
C730        F735   1.358       .  S
C731        C732   1.408       .  A
C732        F733   1.358       .  S
C737        C742   1.398       .  A
C737       C1554   1.408       .  A
C737       F1560   1.358       .  S
C738        C739   1.408       .  A
C738       C1553   1.407   1_545  A
C739        C740   1.398       .  A
C739       F1562   1.358       .  S
C740        C741   1.406       .  A
C740       F1561   1.358       .  S
C741       C1558   1.407   1_545  A
C742       C1557   1.407       .  A
C742       F1559   1.358       .  S
F743       C1558   1.358       .  S
F744       C1553   1.358       .  S
F745       C1556   1.358       .  S
F746       C1555   1.358       .  S
C747        C748   1.411       .  A
C747        C752   1.399       .  A
C747        F754   1.358       .  S
C748       C1565   1.409   1_545  A
C749        C750   1.396       .  A
C749       C1564   1.409       .  A
C749        F756   1.358       .  S
C750       C1567   1.403       .  A
C750        F755   1.358       .  S
C751        C752   1.404       .  A
C751       C1566   1.404   1_545  A
C752        F753   1.358       .  S
C757        C758   1.410       .  A
C757        C762   1.401       .  A
C757        F764   1.358       .  S
C758       C1770   1.488       .  S
C758       C2391   1.409   1_455  A
C759        C760   1.397       .  A
C759       C2390   1.409       .  A
C759        F766   1.358       .  S
C760       C2393   1.409       .  A
C760        F765   1.358       .  S
C761        C762   1.410       .  A
C761       C2392   1.409   1_455  A
C762        F763   1.358       .  S
C767        C772   1.398       .  A
C767       C2400   1.408       .  A
C767        F774   1.358       .  S
C768        C769   1.408       .  A
C768       C2399   1.408   1_455  A
C769        C770   1.398       .  A
C769        F776   1.358       .  S
C770        C771   1.406   1_455  A
C770        F775   1.358       .  S
C771       C2404   1.406       .  A
C772       C2403   1.406       .  A
C772        F773   1.358       .  S
C777        C778   1.409   1_455  A
C777        C782   1.397       .  A
C777        F784   1.358       .  S
C778       C2411   1.410       .  A
C779        C780   1.399       .  A
C779       C2410   1.410       .  A
C779        F786   1.358       .  S
C780        C781   1.410       .  A
C780        F785   1.358       .  S
C781       C2414   1.408       .  A
C782       C2413   1.408   1_455  A
C782        F783   1.358       .  S
C787        C792   1.400       .  A
C787       C2420   1.410       .  A
C787        F794   1.358       .  S
C788        C789   1.409       .  A
C788       C2419   1.410       .  A
C789        C790   1.397       .  A
C789        F796   1.358       .  S
C790       C2423   1.409       .  A
C790        F795   1.358       .  S
C791        C792   1.410       .  A
C791       C2422   1.409   1_455  A
C792        F793   1.358       .  S
C797        C798   1.409   1_545  A
C797        C802   1.399       .  A
C797        F804   1.358       .  S
C798       C3247   1.409   1_455  A
C799        C800   1.398       .  A
C799       C3246   1.409       .  A
C799        F806   1.358       .  S
C800       C3249   1.408       .  A
C800        F805   1.358       .  S
C801        C802   1.408       .  A
C801       C3248   1.409   1_445  A
C802        F803   1.358       .  S
C807        C808   1.407       .  A
C807        C812   1.398       .  A
C807        F814   1.358       .  S
C808       C3257   1.407   1_445  A
C809        C810   1.396       .  A
C809       C3256   1.406       .  A
C809        F816   1.358       .  S
C810       C3259   1.406       .  A
C810        F815   1.358       .  S
C811        C812   1.407   1_655  A
C811       C3258   1.406   1_545  A
C812        F813   1.358       .  S
O817       C2459   1.265       .  A
O818        V825   1.898       .  S
O818       C2460   1.265       .  A
O819        V825   1.897       .  S
O819        C829   1.264       .  A
O820        V825   1.897       .  S
O820        C830   1.264       .  A
O821        V826   1.896       .  S
O821       C1646   1.264   1_565  A
O822        V826   1.896       .  S
O822       C1645   1.264   1_565  A
O823        C828   1.264       .  A
O824        V826   1.897       .  S
O824        C827   1.264       .  A
V825       V1642   2.085   1_455  T
V826       V1641   2.084   1_565  T
C827       O2449   1.265       .  A
C827       C1597   1.487       .  S
C828       O2450   1.265       .  A
C828       C1604   1.486       .  S
C829       O1638   1.264   1_455  A
C829       C1624   1.476       .  S
C830       O1637   1.265   1_455  A
C830       C1617   1.483       .  S
O831        V839   1.897       .  S
O831        C841   1.264       .  A
O832        V839   1.897       .  S
O832        C842   1.265       .  A
O833        V839   1.899       .  S
O833        C843   1.265   1_455  A
O834        V839   1.900       .  S
O834        C844   1.265       .  A
O835        V840   1.898       .  S
O835       C2476   1.265       .  A
O836        V840   1.900       .  S
O836       C2475   1.264       .  A
O837        V840   1.901       .  S
O837       C2474   1.265       .  A
O838        V840   1.898       .  S
O838       C2473   1.265       .  A
V839       V2472   2.084   1_455  T
V840       V2471   2.084       .  T
C841       O2470   1.265   1_455  A
C841       C1607   1.485       .  S
C842       O2469   1.265   1_455  A
C842       C1594   1.487       .  S
C843       O2468   1.264       .  A
C843       C1584   1.481       .  S
C844       O2467   1.265   1_455  A
C844       C1577   1.487       .  S
O845        C855   1.265       .  A
O846        V853   1.895       .  S
O846        C856   1.264       .  A
O847        V853   1.897       .  S
O847        C857   1.263       .  A
O848        V853   1.897       .  S
O848        C858   1.264       .  A
O849        V854   1.894       .  S
O850        V854   1.894       .  S
O851        C856   1.266       .  A
O852        V854   1.895       .  S
O852        C855   1.265       .  A
C855       C1534   1.487       .  S
C856       C1544   1.483       .  S
C857       C1567   1.471       .  S
C858       C1557   1.477       .  S
O859        V867   1.903       .  S
O859        C869   1.266       .  A
O860        V867   1.901       .  S
O860        C870   1.265       .  A
O861        V867   1.898       .  S
O861        C871   1.263       .  A
O862        V867   1.898       .  S
O862        C872   1.265       .  A
O863        V868   1.896       .  S
O863        C872   1.264       .  A
O864        V868   1.898       .  S
O864        C871   1.263       .  A
O865        V868   1.898       .  S
O865        C870   1.265       .  A
O866        V868   1.897       .  S
O866        C869   1.264       .  A
V867        V868   2.084       .  T
C869       C1547   1.484       .  S
C870       C1537   1.488       .  S
C871       C1524   1.466       .  S
C872       C1514   1.484       .  S
O873        V881   1.900       .  S
O873       C1699   1.264       .  A
O874        V881   1.898       .  S
O874       C1700   1.264   1_565  A
O875       V2513   1.899   1_455  S
O876        V881   1.895       .  S
O877       V2514   1.900       .  S
O877        C886   1.265       .  A
O878        V882   1.895       .  S
O878        C885   1.264       .  A
O879        V882   1.897       .  S
O879        C884   1.264       .  A
O880        V882   1.894       .  S
O880        C883   1.263   1_455  A
V881       O2507   1.899       .  S
V881       V1698   2.086   1_565  T
V882       O2509   1.900   1_455  S
V882       V1697   2.086   1_455  T
C883       O1689   1.264       .  A
C883       C1484   1.474       .  S
C884       O1690   1.264   1_455  A
C884       C1627   1.476       .  S
C885       C1504   1.480       .  S
C886       C1494   1.484       .  S
O887       V2527   1.895   1_455  S
O887        C897   1.264       .  A
O888        V895   1.894       .  S
O888        C898   1.264       .  A
O889        V895   1.900       .  S
O889       C2531   1.264       .  A
O890        V895   1.899       .  S
O890       C2532   1.265       .  A
O891        V896   1.898       .  S
O891        C900   1.264       .  A
O892        V896   1.899       .  S
O892        C899   1.264   1_455  A
O893       V2528   1.896       .  S
O893        C898   1.264       .  A
O894        V896   1.897       .  S
O894        C897   1.265       .  A
V895       O2519   1.896       .  S
V895       V2528   2.084       .  T
V896       O2525   1.897   1_455  S
V896       V2527   2.084   1_455  T
C897       C1474   1.483       .  S
C898       C1464   1.482       .  S
C899       O2521   1.264       .  A
C899       C1587   1.479       .  S
C900       O2522   1.264   1_455  A
C900       C1454   1.479   1_455  S
O901        V909   1.896       .  S
O901        C911   1.264       .  A
O902        V909   1.899       .  S
O902        C912   1.264       .  A
O903        V909   1.898       .  S
O903        C913   1.265       .  A
O904        V909   1.899       .  S
O904        C914   1.265       .  A
O905        V910   1.898       .  S
O906        V910   1.899       .  S
O907        V910   1.897       .  S
O908        V910   1.901       .  S
C911       C1444   1.483       .  S
C912       C1564   1.481       .  S
C913       C1507   1.480       .  S
C914       C1497   1.483       .  S
O915        V923   1.894       .  S
O915        C925   1.264       .  A
O916        V923   1.897       .  S
O916        C926   1.264       .  A
O917        V923   1.894       .  S
O917        C927   1.264       .  A
O918        V923   1.894       .  S
O918        C928   1.264       .  A
O919        V924   1.897       .  S
O919        C928   1.264       .  A
O920        V924   1.897       .  S
O920        C927   1.264       .  A
O921        V924   1.899       .  S
O921        C926   1.265       .  A
O922        V924   1.901       .  S
O922        C925   1.265       .  A
V923        V924   2.084       .  T
C925       C1434   1.485       .  S
C926       C1527   1.485       .  S
C927       C1477   1.482       .  S
C928       C1467   1.483       .  S
O929        V937   1.898       .  S
O929       C1755   1.264       .  A
O930        V937   1.897       .  S
O930       C1756   1.264       .  A
O931       C2573   1.265       .  A
O932        V937   1.896       .  S
O932       C2574   1.264       .  A
O933        C942   1.265       .  A
O934        V938   1.895       .  S
O934        C941   1.264   1_455  A
O935        V938   1.898       .  S
O935        C940   1.264   1_455  A
O936        V938   1.897       .  S
O936        C939   1.264   1_455  A
V937       V1754   2.084   1_565  T
V938       V1753   2.084   1_455  T
C939       O1745   1.264       .  A
C939       C1424   1.480       .  S
C940       O1746   1.265       .  A
C940       C1614   1.484       .  S
C941       O2563   1.265       .  A
C941       C1417   1.486       .  S
C942       O2564   1.264   1_455  A
C942       C1404   1.487       .  S
O943        V951   1.899       .  S
O943       C2585   1.264   1_455  A
O944        V951   1.901       .  S
O944       C2586   1.265       .  A
O945        V951   1.897       .  S
O945        C955   1.264   1_455  A
O946        V951   1.899       .  S
O946        C956   1.265       .  A
O947        V952   1.896       .  S
O947       C2588   1.264       .  A
O948        V952   1.900       .  S
O948       C2587   1.265       .  A
O949        V952   1.896       .  S
O949        C954   1.264       .  A
O950        V952   1.897       .  S
O950        C953   1.264       .  A
V951       V2584   2.084   1_455  T
V952       V2583   2.084       .  T
C953       O2575   1.264       .  A
C953       C3029   1.476       .  S
C954       O2576   1.265       .  A
C954       C3206   1.487       .  S
C955       O2580   1.265       .  A
C955       C1414   1.486       .  S
C956       O2579   1.264   1_455  A
C956       C1407   1.486       .  S
O957        C967   1.266       .  A
O958        V965   1.898       .  S
O958        C968   1.265       .  A
O959        V965   1.897       .  S
O959        C969   1.264       .  A
O960        V965   1.898       .  S
O960        C970   1.263       .  A
O961        V966   1.898       .  S
O962        V966   1.897       .  S
O963        C968   1.265       .  A
O964        V966   1.898       .  S
O964        C967   1.264       .  A
C967       C1364   1.485       .  S
C968       C1377   1.487       .  S
C969       C1554   1.478       .  S
C970       C1384   1.464       .  S
O971        V979   1.898       .  S
O971        C981   1.265       .  A
O972        V979   1.896       .  S
O972        C982   1.264       .  A
O973        V979   1.900       .  S
O973        C983   1.265       .  A
O974        V979   1.900       .  S
O974        C984   1.265       .  A
O975        V980   1.899       .  S
O975        C984   1.265       .  A
O976        V980   1.899       .  S
O976        C983   1.265       .  A
O977        V980   1.897       .  S
O977        C982   1.264       .  A
O978        V980   1.896       .  S
O978        C981   1.264       .  A
V979        V980   2.083       .  T
C981       C1357   1.485       .  S
C982       C1517   1.485       .  S
C983       C1367   1.486       .  S
C984       C1374   1.488       .  S
O985       V2625   1.902   1_455  S
O985        C995   1.266       .  A
O986        C996   1.265       .  A
O987        V993   1.899       .  S
O987       C2629   1.264       .  A
O988        V993   1.899       .  S
O988       C2630   1.264       .  A
O989        V994   1.895       .  S
O990        V994   1.897       .  S
O991       V2626   1.899       .  S
O991        C996   1.265       .  A
O992        C995   1.263       .  A
V993       O2617   1.902       .  S
V993       V1810   2.084       .  T
V994       O2623   1.900   1_455  S
V994       V1809   2.084   1_465  T
C995       C1337   1.485       .  S
C996       C1324   1.486       .  S
C997       O2619   1.264       .  A
C997       C1427   1.476       .  S
C998       O2620   1.265       .  A
C998       C1344   1.485       .  S
O999       V1007   1.894       .  S
O999       C1009   1.264       .  A
O1000      V2639   1.899       .  S
O1000      C1010   1.265       .  A
O1001      V1007   1.897       .  S
O1001      C1011   1.264   1_455  A
O1002      V1007   1.897       .  S
O1002      C1012   1.264   1_455  A
O1003      V1008   1.899       .  S
O1003      C2644   1.265       .  A
O1004      V1008   1.900       .  S
O1004      C2643   1.264       .  A
O1005      V1008   1.897       .  S
O1005      C1010   1.265       .  A
O1006      V2640   1.901   1_455  S
O1006      C1009   1.265       .  A
V1007      O2632   1.899   1_455  S
V1007      V2640   2.085   1_455  T
V1008      O2638   1.901       .  S
V1008      V2639   2.085       .  T
C1009      C1304   1.486       .  S
C1010      C1294   1.486       .  S
C1011      O2636   1.264       .  A
C1011      C1314   1.472       .  S
C1012      O2635   1.265       .  A
C1012      C1394   1.480       .  S
O1013      V1021   1.900       .  S
O1013      C1023   1.265       .  A
O1014      V1021   1.899       .  S
O1014      C1024   1.265       .  A
O1015      C1025   1.264       .  A
O1016      V1021   1.896       .  S
O1016      C1026   1.264       .  A
O1017      C1026   1.265       .  A
O1018      V1022   1.897       .  S
O1018      C1025   1.265       .  A
O1019      V1022   1.897       .  S
O1020      V1022   1.895       .  S
C1023      C1387   1.483       .  S
C1024      C1284   1.480       .  S
C1025      C1307   1.486       .  S
C1026      C1297   1.486       .  S
O1027      V1035   1.898       .  S
O1027      C1037   1.265       .  A
O1028      V1035   1.894       .  S
O1028      C1038   1.264       .  A
O1029      V1035   1.897       .  S
O1029      C1039   1.263       .  A
O1030      V1035   1.899       .  S
O1030      C1040   1.265       .  A
O1031      V1036   1.896       .  S
O1031      C1040   1.264       .  A
O1032      V1036   1.896       .  S
O1032      C1039   1.263       .  A
O1033      V1036   1.901       .  S
O1033      C1038   1.266       .  A
O1034      V1036   1.899       .  S
O1034      C1037   1.265       .  A
V1035      V1036   2.084       .  T
C1037      C1327   1.486       .  S
C1038      C1334   1.485       .  S
C1039      C1354   1.466       .  S
C1040      C1274   1.485       .  S
O1041      V1049   1.895       .  S
O1041      C1051   1.264   1_455  A
O1042      V1049   1.895       .  S
O1042      C1052   1.263   1_455  A
O1043      V1049   1.897       .  S
O1043      C1053   1.265       .  A
O1044      V2681   1.895       .  S
O1044      C1054   1.264       .  A
O1045      V1050   1.896       .  S
O1046      V2682   1.896   1_455  S
O1047      V1050   1.900       .  S
O1047      C1868   1.265       .  A
O1048      V1050   1.901       .  S
O1048      C1867   1.265       .  A
V1049      O2676   1.895   1_455  S
V1049      V1866   2.084   1_455  T
V1050      O2678   1.896       .  S
V1050      V1865   2.084   1_565  T
C1051      O1864   1.264       .  A
C1051      C1487   1.475       .  S
C1052      O1863   1.264       .  A
C1052      C1264   1.469       .  S
C1053      C1254   1.483       .  S
C1054      C1247   1.482       .  S
O1055      V1063   1.897       .  S
O1055      C1065   1.264       .  A
O1056      V2695   1.895   1_455  S
O1056      C1066   1.264       .  A
O1057      V1063   1.900       .  S
O1057      C2699   1.265       .  A
O1058      V1063   1.900       .  S
O1058      C2700   1.265       .  A
O1059      V1064   1.898       .  S
O1059      C1068   1.264       .  A
O1060      V1064   1.897       .  S
O1060      C1067   1.264       .  A
O1061      V1064   1.896       .  S
O1061      C1066   1.264       .  A
O1062      V2696   1.895       .  S
O1062      C1065   1.265       .  A
V1063      O2688   1.896       .  S
V1063      V2696   2.085       .  T
V1064      O2694   1.895   1_455  S
V1064      V2695   2.085   1_455  T
C1065      C1214   1.484       .  S
C1066      C1224   1.480       .  S
C1067      O2689   1.265   1_455  A
C1067      C1234   1.479       .  S
C1068      O2690   1.265   1_455  A
C1068      C1457   1.479   1_455  S
O1069      V1077   1.897       .  S
O1070      V1077   1.895       .  S
O1071      V1077   1.901       .  S
O1072      V1077   1.904       .  S
O1073      V1078   1.895       .  S
O1073      C1082   1.264       .  A
O1074      V1078   1.896       .  S
O1074      C1081   1.263       .  A
O1075      V1078   1.897       .  S
O1075      C1080   1.265       .  A
O1076      V1078   1.896       .  S
O1076      C1079   1.264       .  A
C1079      C1257   1.484       .  S
C1080      C1244   1.480       .  S
C1081      C1207   1.474       .  S
C1082      C1447   1.485       .  S
O1083      V1091   1.893       .  S
O1083      C1093   1.264       .  A
O1084      V1091   1.895       .  S
O1084      C1094   1.262       .  A
O1085      V1091   1.895       .  S
O1085      C1095   1.264       .  A
O1086      V1091   1.897       .  S
O1086      C1096   1.264       .  A
O1087      V1092   1.893       .  S
O1087      C1096   1.264       .  A
O1088      V1092   1.899       .  S
O1088      C1095   1.265       .  A
O1089      V1092   1.900       .  S
O1089      C1094   1.264       .  A
O1090      V1092   1.902       .  S
O1090      C1093   1.265       .  A
V1091      V1092   2.085       .  T
C1093      C1437   1.485       .  S
C1094      C1194   1.465       .  S
C1095      C1217   1.484       .  S
C1096      C1227   1.481       .  S
O1097      V2737   1.903       .  S
O1097      C1107   1.266       .  A
O1098      C1108   1.265       .  A
O1099      V1105   1.891       .  S
O1100      V1105   1.894       .  S
O1101      V1106   1.899       .  S
O1101      C2742   1.265       .  A
O1102      V1106   1.901       .  S
O1102      C2741   1.265       .  A
O1103      V2738   1.898   1_455  S
O1103      C1108   1.265       .  A
O1104      C1107   1.263       .  A
V1105      O2729   1.904   1_455  S
V1105      V1922   2.084   1_465  T
V1106      O2735   1.897       .  S
V1106      V1921   2.084       .  T
C1107      C1174   1.487       .  S
C1108      C1184   1.486       .  S
C1109      O2734   1.265       .  A
C1109      C1347   1.484       .  S
C1110      O2733   1.265       .  A
C1110      C1267   1.483       .  S
O1111      V1119   1.895       .  S
O1111      C1121   1.264       .  A
O1112      V2751   1.900   1_455  S
O1112      C1122   1.265       .  A
O1113      V1119   1.898       .  S
O1113      C2755   1.263       .  A
O1114      V1119   1.899       .  S
O1114      C2756   1.264       .  A
O1115      V1120   1.898       .  S
O1115      C1124   1.264       .  A
O1116      V1120   1.899       .  S
O1116      C1123   1.263       .  A
O1117      V1120   1.896       .  S
O1117      C1122   1.264       .  A
O1118      V2752   1.899       .  S
O1118      C1121   1.265       .  A
V1119      O2744   1.900       .  S
V1119      V2752   2.086       .  T
V1120      O2750   1.899   1_455  S
V1120      V2751   2.086   1_455  T
C1121      C1154   1.485       .  S
C1122      C1167   1.486       .  S
C1123      O2745   1.263   1_455  A
C1123      C1237   1.464       .  S
C1124      O2746   1.264   1_455  A
C1124      C1317   1.473   1_455  S
O1125      C1135   1.264       .  A
O1126      V1133   1.896       .  S
O1126      C1136   1.264       .  A
O1127      V1133   1.898       .  S
O1128      V1133   1.898       .  S
O1129      V1134   1.896       .  S
O1129      C1138   1.264   1_565  A
O1130      V1134   1.897       .  S
O1130      C1137   1.264   1_565  A
O1131      C1136   1.265       .  A
O1132      V1134   1.897       .  S
O1132      C1135   1.265       .  A
C1135      C1164   1.486       .  S
C1136      C1157   1.486       .  S
C1137      C1204   1.483       .  S
O1139      V1147   1.899       .  S
O1139      C1149   1.264       .  A
O1140      V1147   1.893       .  S
O1140      C1150   1.264       .  A
O1141      V1147   1.896       .  S
O1141      C1151   1.264       .  A
O1142      V1147   1.896       .  S
O1142      C1152   1.263       .  A
O1143      V1148   1.899       .  S
O1143      C1152   1.263       .  A
O1144      V1148   1.899       .  S
O1144      C1151   1.265       .  A
O1145      V1148   1.904       .  S
O1145      C1150   1.266       .  A
O1146      V1148   1.899       .  S
O1146      C1149   1.265       .  A
V1147      V1148   2.084       .  T
C1149      C1187   1.485       .  S
C1150      C1177   1.487       .  S
C1151      C1277   1.485       .  S
C1152      C1197   1.467       .  S
C1153      C1154   1.409       .  A
C1153      C1158   1.396       .  A
C1153      F1160   1.358       .  S
C1154      C1155   1.410       .  A
C1155      C1156   1.399       .  A
C1155      F1162   1.358       .  S
C1156      C1157   1.410       .  A
C1156      F1161   1.358       .  S
C1157      C1158   1.409       .  A
C1158      F1159   1.358       .  S
C1163      C1164   1.409       .  A
C1163      C1168   1.397       .  A
C1163      F1170   1.358       .  S
C1164      C1165   1.410       .  A
C1165      C1166   1.399       .  A
C1165      F1172   1.358       .  S
C1166      C1167   1.410       .  A
C1166      F1171   1.358       .  S
C1167      C1168   1.409       .  A
C1168      F1169   1.358       .  S
C1173      C1174   1.411       .  A
C1173      C1178   1.399       .  A
C1173      F1180   1.358       .  S
C1174      C1175   1.408       .  A
C1175      C1176   1.397       .  A
C1175      F1182   1.358       .  S
C1176      C1177   1.410       .  A
C1176      F1181   1.358       .  S
C1177      C1178   1.409       .  A
C1178      F1179   1.358       .  S
C1183      C1184   1.410       .  A
C1183      C1188   1.400       .  A
C1183      F1190   1.358       .  S
C1184      C1185   1.409       .  A
C1185      C1186   1.397       .  A
C1185      F1192   1.358       .  S
C1186      C1187   1.408       .  A
C1186      F1191   1.358       .  S
C1187      C1188   1.409       .  A
C1188      F1189   1.358       .  S
C1193      C1194   1.403       .  A
C1193      C1198   1.398       .  A
C1193      F1200   1.358       .  S
C1194      C1195   1.404       .  A
C1195      C1196   1.398       .  A
C1195      F1202   1.358       .  S
C1196      C1197   1.404       .  A
C1196      F1201   1.358       .  S
C1197      C1198   1.404       .  A
C1198      F1199   1.358       .  S
C1203      C1204   1.410   1_565  A
C1203      C1208   1.398       .  A
C1203      F1210   1.358       .  S
C1205      C1206   1.398       .  A
C1205      F1212   1.358       .  S
C1206      C1207   1.405       .  A
C1206      F1211   1.358       .  S
C1208      F1209   1.358       .  S
C1213      C1214   1.410       .  A
C1213      C1218   1.398       .  A
C1213      F1220   1.358       .  S
C1214      C1215   1.408       .  A
C1215      C1216   1.396       .  A
C1215      F1222   1.358       .  S
C1216      C1217   1.409       .  A
C1216      F1221   1.358       .  S
C1217      C1218   1.409       .  A
C1218      F1219   1.358       .  S
C1223      C1224   1.408       .  A
C1223      C1228   1.396       .  A
C1223      F1230   1.358       .  S
C1224      C1225   1.408       .  A
C1225      C1226   1.397       .  A
C1225      F1232   1.358       .  S
C1226      C1227   1.409       .  A
C1226      F1231   1.358       .  S
C1227      C1228   1.408       .  A
C1228      F1229   1.358       .  S
C1233      C2866   1.409       .  A
C1233      C1238   1.399       .  A
C1233      F1240   1.358       .  S
C1234      C2865   1.409   1_455  A
C1234      C1235   1.410       .  A
C1235      C1236   1.398       .  A
C1235      F1242   1.358       .  S
C1236      C1237   1.400       .  A
C1236      F1241   1.358       .  S
C1237      C2870   1.401   1_455  A
C1238      C2869   1.401       .  A
C1238      F1239   1.358       .  S
C1243      C1244   1.407       .  A
C1243      C1248   1.396       .  A
C1243      F1250   1.358       .  S
C1245      C1246   1.397       .  A
C1245      F1252   1.358       .  S
C1246      F1251   1.358       .  S
C1247      C1248   1.409       .  A
C1248      F1249   1.358       .  S
C1253      C1254   1.409       .  A
C1253      C1258   1.397       .  A
C1253      F1260   1.358       .  S
C1255      C1256   1.397       .  A
C1255      F1262   1.358       .  S
C1256      F1261   1.358       .  S
C1257      C1258   1.409       .  A
C1258      F1259   1.358       .  S
C1263      C2080   1.403       .  A
C1263      C1268   1.398       .  A
C1263      F1270   1.358       .  S
C1264      C2079   1.402   1_655  A
C1264      C1265   1.403       .  A
C1265      C1266   1.397       .  A
C1265      F1272   1.358       .  S
C1266      C1267   1.410       .  A
C1266      F1271   1.358       .  S
C1267      C2084   1.411   1_655  A
C1268      C2083   1.411   1_565  A
C1268      F1269   1.358       .  S
C1273      C1274   1.409       .  A
C1273      C1278   1.397       .  A
C1273      F1280   1.358       .  S
C1274      C1275   1.409       .  A
C1275      C1276   1.399       .  A
C1275      F1282   1.358       .  S
C1276      C1277   1.409       .  A
C1276      F1281   1.358       .  S
C1277      C1278   1.409       .  A
C1278      F1279   1.358       .  S
C1283      C1288   1.400       .  A
C1283      F1290   1.358       .  S
C1284      C1285   1.408       .  A
C1285      C1286   1.397       .  A
C1285      F1292   1.358       .  S
C1286      C1287   1.408       .  A
C1286      F1291   1.358       .  S
C1288      F1289   1.358       .  S
C1293      C1294   1.409       .  A
C1293      C1298   1.398       .  A
C1293      F1300   1.358       .  S
C1294      C1295   1.409       .  A
C1295      C1296   1.398       .  A
C1295      F1302   1.358       .  S
C1296      C1297   1.410       .  A
C1296      F1301   1.358       .  S
C1297      C1298   1.409       .  A
C1298      F1299   1.358       .  S
C1303      C1304   1.409       .  A
C1303      C1308   1.399       .  A
C1303      F1310   1.358       .  S
C1304      C1305   1.410       .  A
C1305      C1306   1.397       .  A
C1305      F1312   1.358       .  S
C1306      C1307   1.409       .  A
C1306      F1311   1.358       .  S
C1307      C1308   1.410       .  A
C1308      F1309   1.358       .  S
C1313      C1314   1.405   1_455  A
C1313      C1318   1.398       .  A
C1313      F1320   1.358       .  S
C1314      C2947   1.406       .  A
C1315      C2946   1.405       .  A
C1315      C1316   1.400       .  A
C1315      F1322   1.358       .  S
C1316      C2949   1.406       .  A
C1316      F1321   1.358       .  S
C1317      C2948   1.406       .  A
C1317      C1318   1.405   1_655  A
C1318      F1319   1.358       .  S
C1323      C1324   1.409       .  A
C1323      C1328   1.397       .  A
C1323      F1330   1.358       .  S
C1324      C1325   1.410       .  A
C1325      C1326   1.399       .  A
C1325      F1332   1.358       .  S
C1326      C1327   1.409       .  A
C1326      F1331   1.358       .  S
C1327      C1328   1.409       .  A
C1328      F1329   1.358       .  S
C1333      C1334   1.410       .  A
C1333      C1338   1.398       .  A
C1333      F1340   1.358       .  S
C1334      C1335   1.408       .  A
C1335      C1336   1.397       .  A
C1335      F1342   1.358       .  S
C1336      C1337   1.410       .  A
C1336      F1341   1.358       .  S
C1337      C1338   1.408       .  A
C1338      F1339   1.358       .  S
C1343      C2976   1.410       .  A
C1343      C1348   1.400       .  A
C1343      F1350   1.358       .  S
C1344      C2975   1.410       .  A
C1345      C1346   1.395       .  A
C1345      F1352   1.358       .  S
C1346      F1351   1.358       .  S
C1347      C2980   1.409       .  A
C1348      C2979   1.409       .  A
C1348      F1349   1.358       .  S
C1353      C1354   1.401       .  A
C1353      C1358   1.397   1_556  A
C1353      F1360   1.358       .  S
C1354      C1355   1.401       .  A
C1355      C1356   1.398   1_556  A
C1355      F1362   1.358       .  S
C1356      C1357   1.412       .  A
C1356      F1361   1.358       .  S
C1357      C1358   1.412       .  A
C1358      F1359   1.358       .  S
C1363      C1364   1.408       .  A
C1363      C1368   1.399       .  A
C1363      F1370   1.358       .  S
C1364      C1365   1.409       .  A
C1365      C1366   1.399       .  A
C1365      F1372   1.358       .  S
C1366      C1367   1.409       .  A
C1366      F1371   1.358       .  S
C1367      C1368   1.409       .  A
C1368      F1369   1.358       .  S
C1373      C1374   1.410       .  A
C1373      C1378   1.399       .  A
C1373      F1380   1.358       .  S
C1374      C1375   1.410       .  A
C1375      C1376   1.398       .  A
C1375      F1382   1.358       .  S
C1376      C1377   1.409       .  A
C1376      F1381   1.358       .  S
C1377      C1378   1.410       .  A
C1378      F1379   1.358       .  S
C1383      C1388   1.397   1_554  A
C1383      F1390   1.358       .  S
C1384      C1385   1.401       .  A
C1385      C1386   1.399   1_554  A
C1385      F1392   1.358       .  S
C1386      C1387   1.411       .  A
C1386      F1391   1.358       .  S
C1388      F1389   1.358       .  S
C1393      C3026   1.408       .  A
C1393      C1398   1.398   1_556  A
C1393      F1400   1.358       .  S
C1394      C3025   1.408       .  A
C1394      C1395   1.408   1_655  A
C1395      C1396   1.398   1_556  A
C1395      F1402   1.358       .  S
C1396      C1397   1.405   1_455  A
C1396      F1401   1.358       .  S
C1397      C2585   1.476       .  S
C1397      C3030   1.406       .  A
C1398      C3029   1.406       .  A
C1398      F1399   1.358       .  S
C1403      C1404   1.409       .  A
C1403      C1408   1.399       .  A
C1403      F1410   1.358       .  S
C1404      C3037   1.410   1_455  A
C1405      C3036   1.409       .  A
C1405      C1406   1.397       .  A
C1405      F1412   1.358       .  S
C1406      C3039   1.409       .  A
C1406      F1411   1.358       .  S
C1407      C3038   1.409   1_455  A
C1407      C1408   1.410       .  A
C1408      F1409   1.358       .  S
C1413      C3046   1.410       .  A
C1413      C1418   1.399       .  A
C1413      F1420   1.358       .  S
C1414      C3045   1.410       .  A
C1414      C1415   1.409   1_655  A
C1415      C1416   1.397       .  A
C1415      F1422   1.358       .  S
C1416      C1417   1.409   1_455  A
C1416      F1421   1.358       .  S
C1417      C3050   1.409       .  A
C1418      C3049   1.409       .  A
C1418      F1419   1.358       .  S
C1423      C1424   1.408   1_455  A
C1423      C1428   1.397   1_554  A
C1423      F1430   1.358       .  S
C1424      C2241   1.408       .  A
C1425      C2240   1.408   1_565  A
C1425      C1426   1.398   1_554  A
C1425      F1432   1.358       .  S
C1426      C2243   1.405       .  A
C1426      F1431   1.358       .  S
C1427      C2242   1.406       .  A
C1427      C1428   1.406   1_655  A
C1428      F1429   1.358       .  S
C1433      C1434   1.410       .  A
C1433      C1438   1.400       .  A
C1433      F1440   1.358       .  S
C1434      C1435   1.409       .  A
C1435      C1436   1.395       .  A
C1435      F1442   1.358       .  S
C1436      C1437   1.409       .  A
C1436      F1441   1.358       .  S
C1437      C1438   1.410       .  A
C1438      F1439   1.358       .  S
C1443      C1448   1.401       .  A
C1443      F1450   1.358       .  S
C1444      C1445   1.408       .  A
C1445      C1446   1.396       .  A
C1445      F1452   1.358       .  S
C1446      C1447   1.409       .  A
C1446      F1451   1.358       .  S
C1448      F1449   1.358       .  S
C1453      C1454   1.407       .  A
C1453      C1458   1.398       .  A
C1453      F1460   1.358       .  S
C1454      C3087   1.407   1_655  A
C1455      C3086   1.407       .  A
C1455      C1456   1.399       .  A
C1455      F1462   1.358       .  S
C1456      C3089   1.407       .  A
C1456      F1461   1.358       .  S
C1457      C3088   1.407   1_655  A
C1457      C1458   1.407       .  A
C1458      F1459   1.358       .  S
C1463      C1464   1.409       .  A
C1463      C1468   1.396       .  A
C1463      F1470   1.358       .  S
C1464      C1465   1.409       .  A
C1465      C1466   1.397       .  A
C1465      F1472   1.358       .  S
C1466      C1467   1.409       .  A
C1466      F1471   1.358       .  S
C1467      C1468   1.409       .  A
C1468      F1469   1.358       .  S
C1473      C1474   1.408       .  A
C1473      C1478   1.396       .  A
C1473      F1480   1.358       .  S
C1474      C1475   1.410       .  A
C1475      C1476   1.397       .  A
C1475      F1482   1.358       .  S
C1476      C1477   1.408       .  A
C1476      F1481   1.358       .  S
C1477      C1478   1.409       .  A
C1478      F1479   1.358       .  S
C1483      C2300   1.406       .  A
C1483      C1488   1.399       .  A
C1483      F1490   1.358       .  S
C1484      C2299   1.406       .  A
C1484      C1485   1.406   1_655  A
C1485      C1486   1.396       .  A
C1485      F1492   1.358       .  S
C1486      C1487   1.406   1_455  A
C1486      F1491   1.358       .  S
C1487      C2304   1.407       .  A
C1488      C2303   1.407       .  A
C1488      F1489   1.358       .  S
C1493      C1498   1.397       .  A
C1493      F1500   1.358       .  S
C1494      C1495   1.409       .  A
C1495      C1496   1.399       .  A
C1495      F1502   1.358       .  S
C1496      C1497   1.409       .  A
C1496      F1501   1.358       .  S
C1498      F1499   1.358       .  S
C1503      C1508   1.399       .  A
C1503      F1510   1.358       .  S
C1504      C1505   1.408       .  A
C1505      C1506   1.397       .  A
C1505      F1512   1.358       .  S
C1506      C1507   1.407       .  A
C1506      F1511   1.358       .  S
C1508      F1509   1.358       .  S
C1513      C1514   1.409       .  A
C1513      C1518   1.398       .  A
C1513      F1520   1.358       .  S
C1514      C1515   1.409       .  A
C1515      C1516   1.396       .  A
C1515      F1522   1.358       .  S
C1516      C1517   1.409       .  A
C1516      F1521   1.358       .  S
C1517      C1518   1.410       .  A
C1518      F1519   1.358       .  S
C1523      C1524   1.401       .  A
C1523      C1528   1.399       .  A
C1523      F1530   1.358       .  S
C1524      C1525   1.400       .  A
C1525      C1526   1.397       .  A
C1525      F1532   1.358       .  S
C1526      C1527   1.411       .  A
C1526      F1531   1.358       .  S
C1527      C1528   1.413       .  A
C1528      F1529   1.358       .  S
C1533      C1534   1.410       .  A
C1533      C1538   1.401       .  A
C1533      F1540   1.358       .  S
C1534      C1535   1.409       .  A
C1535      C1536   1.396       .  A
C1535      F1542   1.358       .  S
C1536      C1537   1.409       .  A
C1536      F1541   1.358       .  S
C1537      C1538   1.410       .  A
C1538      F1539   1.358       .  S
C1543      C1544   1.409       .  A
C1543      C1548   1.398       .  A
C1543      F1550   1.358       .  S
C1544      C1545   1.407       .  A
C1545      C1546   1.401       .  A
C1545      F1552   1.358       .  S
C1546      C1547   1.410       .  A
C1546      F1551   1.358       .  S
C1547      C1548   1.407       .  A
C1548      F1549   1.358       .  S
C1553      C1558   1.397       .  A
C1554      C1555   1.407       .  A
C1555      C1556   1.397       .  A
C1556      C1557   1.406       .  A
C1563      C1564   1.410       .  A
C1563      C1568   1.399       .  A
C1563      F1570   1.358       .  S
C1565      C1566   1.397       .  A
C1565      F1572   1.358       .  S
C1566      F1571   1.358       .  S
C1567      C1568   1.404       .  A
C1568      F1569   1.358       .  S
C1573      C1574   1.410       .  A
C1573      C1578   1.400       .  A
C1573      F1580   1.358       .  S
C1574      C2586   1.487       .  S
C1574      C3207   1.409   1_455  A
C1575      C3206   1.409       .  A
C1575      C1576   1.397       .  A
C1575      F1582   1.358       .  S
C1576      C3209   1.409       .  A
C1576      F1581   1.358       .  S
C1577      C3208   1.409   1_455  A
C1577      C1578   1.410       .  A
C1578      F1579   1.358       .  S
C1583      C3216   1.408       .  A
C1583      C1588   1.400       .  A
C1583      F1590   1.358       .  S
C1584      C3215   1.408       .  A
C1584      C1585   1.408   1_655  A
C1585      C1586   1.398       .  A
C1585      F1592   1.358       .  S
C1586      C1587   1.406   1_455  A
C1586      F1591   1.358       .  S
C1587      C3220   1.407       .  A
C1588      C3219   1.407       .  A
C1588      F1589   1.358       .  S
C1593      C1594   1.410       .  A
C1593      C1598   1.398       .  A
C1593      F1600   1.358       .  S
C1594      C3227   1.409   1_455  A
C1595      C3226   1.409       .  A
C1595      C1596   1.399       .  A
C1595      F1602   1.358       .  S
C1596      C1597   1.410       .  A
C1596      F1601   1.358       .  S
C1597      C3230   1.409       .  A
C1598      C3229   1.409       .  A
C1598      F1599   1.358       .  S
C1603      C3236   1.409       .  A
C1603      C1608   1.398       .  A
C1603      F1610   1.358       .  S
C1604      C3235   1.409       .  A
C1604      C1605   1.410       .  A
C1605      C1606   1.397       .  A
C1605      F1612   1.358       .  S
C1606      C3239   1.409       .  A
C1606      F1611   1.358       .  S
C1607      C3238   1.409   1_455  A
C1607      C1608   1.410       .  A
C1608      F1609   1.358       .  S
C1613      C1614   1.409   1_455  A
C1613      C1618   1.398       .  A
C1613      F1620   1.358       .  S
C1614      C2431   1.409       .  A
C1615      C2430   1.409       .  A
C1615      C1616   1.397       .  A
C1615      F1622   1.358       .  S
C1616      C2433   1.409   1_565  A
C1616      F1621   1.358       .  S
C1617      C2432   1.408   1_455  A
C1617      C1618   1.408       .  A
C1618      F1619   1.358       .  S
C1623      C1624   1.407       .  A
C1623      C1628   1.399       .  A
C1623      F1630   1.358       .  S
C1624      C2441   1.406   1_455  A
C1625      C2440   1.407   1_565  A
C1625      C1626   1.397       .  A
C1625      F1632   1.358       .  S
C1626      C2443   1.406   1_565  A
C1626      F1631   1.358       .  S
C1627      C2442   1.406   1_455  A
C1627      C1628   1.407       .  A
C1628      F1629   1.358       .  S
O1633      V2457   1.898       .  S
O1634      V1641   1.901       .  S
O1635      V1641   1.899       .  S
O1635      C1645   1.264       .  A
O1636      V1641   1.899       .  S
O1636      C1646   1.265       .  A
O1637      V1642   1.898       .  S
O1638      V1642   1.897       .  S
O1639      V2458   1.899   1_545  S
O1639      C1644   1.265   1_655  A
O1640      V1642   1.896       .  S
O1640      C1643   1.264       .  A
V1641      O2449   1.901   1_545  S
V1642      O2455   1.898       .  S
C1643      C2413   1.485       .  S
C1644      C2420   1.488       .  S
C1645      C2440   1.477       .  S
C1646      C2433   1.483       .  S
O1647      V1655   1.901       .  S
O1647      C1657   1.265       .  A
O1648      V1655   1.897       .  S
O1648      C1658   1.265       .  A
O1649      V1655   1.899       .  S
O1649      C1659   1.265       .  A
O1650      V1655   1.901       .  S
O1650      C1660   1.265       .  A
O1651      V1656   1.897       .  S
O1652      V1656   1.898       .  S
O1653      V1656   1.900       .  S
O1654      V1656   1.897       .  S
C1657      C2423   1.487       .  S
C1658      C2410   1.486       .  S
C1659      C2400   1.480       .  S
C1660      C2393   1.487       .  S
O1661      V2485   1.899       .  S
O1661      C1671   1.264       .  A
O1662      V1669   1.898       .  S
O1662      C1672   1.264       .  A
O1663      V1669   1.901       .  S
O1663      C1673   1.264       .  A
O1664      V1669   1.900       .  S
O1664      C1674   1.265       .  A
O1665      V1670   1.896       .  S
O1665      C2490   1.264       .  A
O1666      V1670   1.896       .  S
O1666      C2489   1.264       .  A
O1667      V2486   1.900   1_545  S
O1667      C1672   1.265       .  A
O1668      V1670   1.900       .  S
O1668      C1671   1.266       .  A
V1669      O2477   1.903   1_545  S
V1669      V2486   2.086   1_545  T
V1670      O2483   1.905       .  S
V1670      V2485   2.086       .  T
C1671      C2350   1.488       .  S
C1672      C2360   1.485       .  S
C1673      O2482   1.263   1_545  A
C1673      C2383   1.472       .  S
C1674      O2481   1.263   1_545  A
C1674      C2373   1.477       .  S
O1675      V1683   1.902       .  S
O1675      C1685   1.266       .  A
O1676      V1683   1.899       .  S
O1676      C1686   1.265       .  A
O1677      V1683   1.898       .  S
O1677      C1687   1.263       .  A
O1678      V1683   1.898       .  S
O1678      C1688   1.264       .  A
O1679      V1684   1.897       .  S
O1679      C1688   1.265       .  A
O1680      V1684   1.900       .  S
O1680      C1687   1.264       .  A
O1681      V1684   1.900       .  S
O1681      C1686   1.265       .  A
O1682      V1684   1.897       .  S
O1682      C1685   1.264       .  A
V1683      V1684   2.084       .  T
C1685      C2363   1.485       .  S
C1686      C2353   1.488       .  S
C1687      C2340   1.466       .  S
C1688      C2330   1.486       .  S
O1689      V1697   1.897       .  S
O1690      V1697   1.895       .  S
O1691      C2517   1.265       .  A
O1692      V1697   1.896       .  S
O1692      C2518   1.264       .  A
O1693      C1702   1.265   1_545  A
O1694      V1698   1.897       .  S
O1694      C1701   1.264   1_545  A
O1695      V1698   1.896       .  S
O1695      C1700   1.264       .  A
O1696      V1698   1.894       .  S
O1696      C1699   1.263   1_545  A
C1699      C2300   1.474       .  S
C1700      C2443   1.477       .  S
C1701      O2507   1.265       .  A
C1701      C2320   1.482       .  S
C1702      O2508   1.264       .  A
C1702      C2310   1.481       .  S
O1703      C1713   1.264       .  A
O1704      V1711   1.894       .  S
O1704      C1714   1.264       .  A
O1705      V1711   1.897       .  S
O1706      V1711   1.898       .  S
O1707      V1712   1.898       .  S
O1707      C1716   1.265       .  A
O1708      V1712   1.899       .  S
O1708      C1715   1.264       .  A
O1709      C1714   1.265       .  A
O1710      V1712   1.897       .  S
O1710      C1713   1.264       .  A
C1713      C2290   1.482       .  S
C1714      C2280   1.483       .  S
C1715      C2403   1.477       .  S
C1716      C2270   1.479       .  S
O1717      V1725   1.897       .  S
O1717      C1727   1.265   1_545  A
O1718      V1725   1.899       .  S
O1718      C1728   1.264       .  A
O1719      V1725   1.898       .  S
O1719      C1729   1.265   1_545  A
O1720      V1725   1.896       .  S
O1720      C1730   1.264   1_545  A
O1721      V1726   1.896       .  S
O1721      C2546   1.264       .  A
O1722      V1726   1.896       .  S
O1722      C2545   1.264       .  A
O1723      V1726   1.895       .  S
O1723      C2544   1.264       .  A
O1724      V1726   1.898       .  S
O1724      C2543   1.264       .  A
V1725      V2542   2.085   1_545  T
V1726      V2541   2.085       .  T
C1727      O2540   1.265       .  A
C1727      C2260   1.483       .  S
C1728      O2539   1.264   1_545  A
C1728      C2380   1.483       .  S
C1729      O2538   1.264       .  A
C1729      C2323   1.483       .  S
C1730      O2537   1.265       .  A
C1730      C2313   1.480       .  S
O1731      V1739   1.897       .  S
O1731      C1741   1.265       .  A
O1732      V1739   1.900       .  S
O1732      C1742   1.265       .  A
O1733      V1739   1.893       .  S
O1733      C1743   1.263       .  A
O1734      V1739   1.892       .  S
O1734      C1744   1.263       .  A
O1735      V1740   1.898       .  S
O1735      C1744   1.265       .  A
O1736      V1740   1.898       .  S
O1736      C1743   1.265       .  A
O1737      V1740   1.895       .  S
O1737      C1742   1.264       .  A
O1738      V1740   1.898       .  S
O1738      C1741   1.263       .  A
V1739      V1740   2.084       .  T
C1741      C2250   1.480       .  S
C1742      C2343   1.485       .  S
C1743      C2293   1.483       .  S
C1744      C2283   1.483       .  S
O1745      V1753   1.899       .  S
O1746      V1753   1.899       .  S
O1747      V2569   1.896   1_545  S
O1748      V1753   1.901       .  S
O1749      V2570   1.895       .  S
O1749      C1758   1.264       .  A
O1750      V1754   1.902       .  S
O1750      C1757   1.266       .  A
O1751      V1754   1.899       .  S
O1751      C1756   1.264   1_545  A
O1752      V1754   1.899       .  S
O1752      C1755   1.264   1_545  A
V1753      O2563   1.900       .  S
V1754      O2565   1.901   1_545  S
C1755      C2240   1.480   1_565  S
C1756      C2430   1.484       .  S
C1757      C2233   1.487       .  S
C1758      C2220   1.486       .  S
O1759      V1767   1.900       .  S
O1760      V1767   1.902       .  S
O1761      V1767   1.899       .  S
O1761      C1771   1.265       .  A
O1762      V1767   1.900       .  S
O1762      C1772   1.265       .  A
O1763      V1768   1.896       .  S
O1764      V1768   1.899       .  S
O1765      V1768   1.897       .  S
O1765      C1770   1.265   1_655  A
O1766      V1768   1.897       .  S
O1766      C1769   1.264   1_655  A
C1771      C2230   1.487       .  S
C1772      C2223   1.486       .  S
O1773      V2597   1.896       .  S
O1773      C1783   1.264       .  A
O1774      V1781   1.903       .  S
O1774      C1784   1.266       .  A
O1775      V1781   1.897       .  S
O1775      C1785   1.264   1_545  A
O1776      V1781   1.897       .  S
O1776      C1786   1.262   1_545  A
O1777      V1782   1.899       .  S
O1777      C2602   1.263       .  A
O1778      V1782   1.897       .  S
O1778      C2601   1.264       .  A
O1779      V2598   1.896   1_545  S
O1779      C1784   1.264       .  A
O1780      V1782   1.901       .  S
O1780      C1783   1.265       .  A
V1781      O2589   1.902   1_545  S
V1781      V2598   2.086   1_545  T
V1782      O2595   1.900       .  S
V1782      V2597   2.086       .  T
C1783      C2180   1.483       .  S
C1784      C2193   1.487       .  S
C1785      O2594   1.264       .  A
C1785      C2370   1.477   1_565  S
C1786      O2593   1.263       .  A
C1786      C2200   1.462       .  S
O1787      V1795   1.898       .  S
O1787      C1797   1.264       .  A
O1788      V1795   1.896       .  S
O1788      C1798   1.265       .  A
O1789      V1795   1.899       .  S
O1789      C1799   1.264       .  A
O1790      V1795   1.898       .  S
O1790      C1800   1.265       .  A
O1791      V1796   1.900       .  S
O1791      C1800   1.265       .  A
O1792      V1796   1.897       .  S
O1792      C1799   1.265       .  A
O1793      V1796   1.899       .  S
O1793      C1798   1.264       .  A
O1794      V1796   1.897       .  S
O1794      C1797   1.264       .  A
V1795      V1796   2.084       .  T
C1797      C2173   1.485       .  S
C1798      C2333   1.485       .  S
C1799      C2183   1.483       .  S
C1800      C2190   1.488       .  S
O1801      C1811   1.265       .  A
O1802      V2625   1.903       .  S
O1802      C1812   1.266       .  A
O1803      V1809   1.898       .  S
O1804      V1809   1.899       .  S
O1805      V1810   1.896       .  S
O1805      C2630   1.264       .  A
O1806      V1810   1.896       .  S
O1806      C2629   1.264       .  A
O1807      C1812   1.264       .  A
O1808      V2626   1.896   1_545  S
O1808      C1811   1.264       .  A
V1809      O2618   1.897   1_545  S
V1810      O2624   1.892       .  S
C1811      C2153   1.484       .  S
C1812      C2140   1.487       .  S
C1813      O2622   1.264       .  A
C1813      C2243   1.476       .  S
C1814      O2621   1.264       .  A
C1814      C2160   1.484       .  S
O1815      V1823   1.894       .  S
O1815      C1825   1.264       .  A
O1816      C1826   1.265       .  A
O1817      V1823   1.897       .  S
O1817      C1827   1.264       .  A
O1818      V1823   1.898       .  S
O1818      C1828   1.264       .  A
O1819      V1824   1.898       .  S
O1820      V1824   1.899       .  S
O1821      V1824   1.895       .  S
O1821      C1826   1.264       .  A
O1822      C1825   1.265       .  A
C1825      C2120   1.485       .  S
C1826      C2110   1.485       .  S
C1827      C2130   1.474       .  S
C1828      C2210   1.480       .  S
O1829      V1837   1.900       .  S
O1829      C1839   1.265   1_545  A
O1830      V1837   1.901       .  S
O1830      C1840   1.265   1_545  A
O1831      V2653   1.898       .  S
O1831      C1841   1.264       .  A
O1832      V1837   1.894       .  S
O1832      C1842   1.264       .  A
O1833      V2654   1.899   1_545  S
O1833      C1842   1.265       .  A
O1834      V1838   1.897       .  S
O1834      C1841   1.265       .  A
O1835      V1838   1.897       .  S
O1835      C2656   1.264       .  A
O1836      V1838   1.896       .  S
O1836      C2655   1.264       .  A
V1837      O2647   1.898   1_545  S
V1837      V2654   2.084   1_545  T
V1838      O2649   1.900       .  S
V1838      V2653   2.084       .  T
C1839      O2652   1.264       .  A
C1839      C2203   1.481       .  S
C1840      O2651   1.264       .  A
C1840      C2100   1.480       .  S
C1841      C2123   1.486       .  S
C1842      C2113   1.485       .  S
O1843      V1851   1.898       .  S
O1843      C1853   1.264       .  A
O1844      V1851   1.892       .  S
O1844      C1854   1.263       .  A
O1845      V1851   1.899       .  S
O1845      C1855   1.263       .  A
O1846      V1851   1.897       .  S
O1846      C1856   1.265       .  A
O1847      V1852   1.897       .  S
O1847      C1856   1.264       .  A
O1848      V1852   1.896       .  S
O1848      C1855   1.263       .  A
O1849      V1852   1.902       .  S
O1849      C1854   1.266       .  A
O1850      V1852   1.899       .  S
O1850      C1853   1.265       .  A
V1851      V1852   2.084       .  T
C1853      C2143   1.486       .  S
C1854      C2150   1.485       .  S
C1855      C2170   1.467       .  S
C1856      C2090   1.485       .  S
O1857      V1865   1.893       .  S
O1857      C1867   1.263   1_545  A
O1858      V1865   1.893       .  S
O1858      C1868   1.263   1_545  A
O1859      V1865   1.897       .  S
O1859      C1869   1.264   1_545  A
O1860      C1870   1.264   1_545  A
O1861      V1866   1.897       .  S
O1861      C2686   1.265       .  A
O1862      C2685   1.264       .  A
O1863      V1866   1.897       .  S
O1864      V1866   1.898       .  S
C1867      C2303   1.476       .  S
C1868      C2080   1.471       .  S
C1869      O2678   1.264       .  A
C1869      C2070   1.483       .  S
C1870      O2677   1.264       .  A
C1870      C2063   1.482       .  S
O1871      V1879   1.897       .  S
O1871      C1881   1.264       .  A
O1872      C1882   1.264       .  A
O1873      V1879   1.903       .  S
O1874      V1879   1.902       .  S
O1875      V1880   1.895       .  S
O1875      C1884   1.264       .  A
O1876      V1880   1.895       .  S
O1876      C1883   1.264       .  A
O1877      V1880   1.894       .  S
O1877      C1882   1.264       .  A
O1878      C1881   1.264       .  A
C1881      C2030   1.484       .  S
C1882      C2040   1.481       .  S
C1883      C2050   1.479       .  S
C1884      C2273   1.479       .  S
O1885      V1893   1.897       .  S
O1885      C2711   1.264       .  A
O1886      V1893   1.895       .  S
O1886      C2712   1.264       .  A
O1887      V1893   1.899       .  S
O1887      C2713   1.264       .  A
O1888      V1893   1.902       .  S
O1888      C2714   1.265       .  A
O1889      V1894   1.896       .  S
O1889      C1898   1.264   1_545  A
O1890      V1894   1.898       .  S
O1890      C1897   1.264   1_545  A
O1891      V1894   1.895       .  S
O1891      C1896   1.264   1_545  A
O1892      V1894   1.895       .  S
O1892      C1895   1.264   1_545  A
V1893      V2710   2.085       .  T
V1894      V2709   2.085   1_545  T
C1895      O2701   1.264       .  A
C1895      C2073   1.484       .  S
C1896      O2702   1.264       .  A
C1896      C2060   1.481       .  S
C1897      O2703   1.265       .  A
C1897      C2023   1.476       .  S
C1898      O2704   1.265       .  A
C1898      C2263   1.485       .  S
O1899      V1907   1.891       .  S
O1899      C1909   1.263       .  A
O1900      V1907   1.894       .  S
O1900      C1910   1.263       .  A
O1901      V1907   1.898       .  S
O1901      C1911   1.264       .  A
O1902      V1907   1.897       .  S
O1902      C1912   1.264       .  A
O1903      V1908   1.893       .  S
O1903      C1912   1.264       .  A
O1904      V1908   1.895       .  S
O1904      C1911   1.264       .  A
O1905      V1908   1.900       .  S
O1905      C1910   1.265       .  A
O1906      V1908   1.902       .  S
O1906      C1909   1.265       .  A
V1907      V1908   2.085       .  T
C1909      C2253   1.480       .  S
C1910      C2010   1.478       .  S
C1911      C2033   1.484       .  S
C1912      C2043   1.481       .  S
O1913      C1923   1.265       .  A
O1914      V2737   1.906   1_545  S
O1914      C1924   1.266       .  A
O1915      V1921   1.894       .  S
O1915      C2741   1.264       .  A
O1916      V1921   1.894       .  S
O1916      C2742   1.263       .  A
O1917      V1922   1.899       .  S
O1918      V1922   1.901       .  S
O1919      C1924   1.263       .  A
O1920      V2738   1.900       .  S
O1920      C1923   1.265       .  A
V1921      O2730   1.900       .  S
V1922      O2736   1.895   1_545  S
C1923      C1990   1.486       .  S
C1924      C2000   1.483       .  S
C1925      O2731   1.263   1_545  A
C1925      C2163   1.484       .  S
C1926      O2732   1.263   1_545  A
C1926      C2083   1.481       .  S
O1927      V1935   1.896       .  S
O1927      C1937   1.265       .  A
O1928      C1938   1.265       .  A
O1929      V1935   1.898       .  S
O1930      V1935   1.899       .  S
O1931      V1936   1.898       .  S
O1931      C1940   1.264       .  A
O1932      V1936   1.899       .  S
O1932      C1939   1.263       .  A
O1933      V1936   1.895       .  S
O1933      C1938   1.264       .  A
O1934      C1937   1.264       .  A
C1937      C1970   1.484       .  S
C1938      C1983   1.487       .  S
C1939      C2053   1.464       .  S
C1940      C2133   1.474       .  S
O1941      V2765   1.901       .  S
O1941      C1951   1.265       .  A
O1942      V1949   1.893       .  S
O1942      C1952   1.264       .  A
O1943      V1949   1.902       .  S
O1943      C2769   1.265       .  A
O1944      V1949   1.901       .  S
O1944      C2770   1.265       .  A
O1945      V1950   1.896       .  S
O1945      C1954   1.264       .  A
O1946      V1950   1.897       .  S
O1946      C1953   1.264       .  A
O1947      V2766   1.900   1_545  S
O1947      C1952   1.265       .  A
O1948      V1950   1.896       .  S
O1948      C1951   1.265       .  A
V1949      O2757   1.898   1_545  S
V1949      V2766   2.084   1_545  T
V1950      O2763   1.900       .  S
V1950      V2765   2.084       .  T
C1951      C1980   1.487       .  S
C1952      C1973   1.485       .  S
C1953      O2759   1.265       .  A
C1953      C2020   1.481       .  S
C1954      O2760   1.264       .  A
C1954      C2919   1.480       .  S
O1955      V1963   1.897       .  S
O1955      C1965   1.264       .  A
O1956      V1963   1.895       .  S
O1956      C1966   1.264       .  A
O1957      V1963   1.895       .  S
O1957      C1967   1.264       .  A
O1958      V1963   1.894       .  S
O1958      C1968   1.262       .  A
O1959      V1964   1.899       .  S
O1959      C1968   1.263       .  A
O1960      V1964   1.899       .  S
O1960      C1967   1.265       .  A
O1961      V1964   1.902       .  S
O1961      C1966   1.265       .  A
O1962      V1964   1.900       .  S
O1962      C1965   1.265       .  A
V1963      V1964   2.086       .  T
C1965      C2003   1.481       .  S
C1966      C1993   1.487       .  S
C1967      C2093   1.485       .  S
C1968      C2013   1.461       .  S
C1969      C1970   1.408       .  A
C1969      C1974   1.395       .  A
C1969      F1976   1.358       .  S
C1970      C1971   1.410       .  A
C1971      C1972   1.399       .  A
C1971      F1978   1.358       .  S
C1972      C1973   1.409       .  A
C1972      F1977   1.358       .  S
C1973      C1974   1.409       .  A
C1974      F1975   1.358       .  S
C1979      C1980   1.409       .  A
C1979      C1984   1.396       .  A
C1979      F1986   1.358       .  S
C1980      C1981   1.410       .  A
C1981      C1982   1.400       .  A
C1981      F1988   1.358       .  S
C1982      C1983   1.410       .  A
C1982      F1987   1.358       .  S
C1983      C1984   1.409       .  A
C1984      F1985   1.358       .  S
C1989      C1990   1.410       .  A
C1989      C1994   1.401       .  A
C1989      F1996   1.358       .  S
C1990      C1991   1.409       .  A
C1991      C1992   1.395       .  A
C1991      F1998   1.358       .  S
C1992      C1993   1.409       .  A
C1992      F1997   1.358       .  S
C1993      C1994   1.410       .  A
C1994      F1995   1.358       .  S
C1999      C2000   1.408       .  A
C1999      C2004   1.400       .  A
C1999      F2006   1.358       .  S
C2000      C2001   1.409       .  A
C2001      C2002   1.397       .  A
C2001      F2008   1.358       .  S
C2002      C2003   1.406       .  A
C2002      F2007   1.358       .  S
C2003      C2004   1.409       .  A
C2004      F2005   1.358       .  S
C2009      C2010   1.409       .  A
C2009      C2014   1.397       .  A
C2009      F2016   1.358       .  S
C2010      C2011   1.410       .  A
C2011      C2012   1.399       .  A
C2011      F2018   1.358       .  S
C2012      C2013   1.401       .  A
C2012      F2017   1.358       .  S
C2013      C2014   1.400       .  A
C2014      F2015   1.358       .  S
C2019      C2020   1.409       .  A
C2019      C2024   1.398       .  A
C2019      F2026   1.358       .  S
C2020      C2837   1.409       .  A
C2021      C2836   1.409   1_545  A
C2021      C2022   1.399       .  A
C2021      F2028   1.358       .  S
C2022      C2023   1.406   1_545  A
C2022      F2027   1.358       .  S
C2023      C2840   1.404       .  A
C2024      C2839   1.404       .  A
C2024      F2025   1.358       .  S
C2029      C2030   1.409       .  A
C2029      C2034   1.397       .  A
C2029      F2036   1.358       .  S
C2030      C2031   1.409       .  A
C2031      C2032   1.397       .  A
C2031      F2038   1.358       .  S
C2032      C2033   1.409       .  A
C2032      F2037   1.358       .  S
C2033      C2034   1.409       .  A
C2034      F2035   1.358       .  S
C2039      C2040   1.408       .  A
C2039      C2044   1.397       .  A
C2039      F2046   1.358       .  S
C2040      C2041   1.408       .  A
C2041      C2042   1.396       .  A
C2041      F2048   1.358       .  S
C2042      C2043   1.408       .  A
C2042      F2047   1.358       .  S
C2043      C2044   1.409       .  A
C2044      F2045   1.358       .  S
C2049      C2054   1.400       .  A
C2049      F2056   1.358       .  S
C2050      C2051   1.410       .  A
C2051      C2052   1.397       .  A
C2051      F2058   1.358       .  S
C2052      C2053   1.400       .  A
C2052      F2057   1.358       .  S
C2054      F2055   1.358       .  S
C2059      C2060   1.408   1_545  A
C2059      C2064   1.396       .  A
C2059      F2066   1.358       .  S
C2060      C2877   1.409       .  A
C2061      C2876   1.408       .  A
C2061      C2062   1.397       .  A
C2061      F2068   1.358       .  S
C2062      C2879   1.409       .  A
C2062      F2067   1.358       .  S
C2063      C2878   1.409       .  A
C2063      C2064   1.409   1_565  A
C2064      F2065   1.358       .  S
C2069      C2070   1.409   1_545  A
C2069      C2074   1.397       .  A
C2069      F2076   1.358       .  S
C2070      C2887   1.409       .  A
C2071      C2886   1.409       .  A
C2071      C2072   1.397       .  A
C2071      F2078   1.358       .  S
C2072      C2889   1.409       .  A
C2072      F2077   1.358       .  S
C2073      C2888   1.409       .  A
C2073      C2074   1.409   1_565  A
C2074      F2075   1.358       .  S
C2079      C2084   1.397       .  A
C2079      F2086   1.358       .  S
C2080      C2081   1.404   1_565  A
C2081      C2082   1.397       .  A
C2081      F2088   1.358       .  S
C2082      C2083   1.409       .  A
C2082      F2087   1.358       .  S
C2084      F2085   1.358       .  S
C2089      C2090   1.409       .  A
C2089      C2094   1.398       .  A
C2089      F2096   1.358       .  S
C2090      C2091   1.409       .  A
C2091      C2092   1.397       .  A
C2091      F2098   1.358       .  S
C2092      C2093   1.409       .  A
C2092      F2097   1.358       .  S
C2093      C2094   1.410       .  A
C2094      F2095   1.358       .  S
C2099      C2916   1.408       .  A
C2099      C2104   1.398       .  A
C2099      F2106   1.358       .  S
C2100      C2915   1.408   1_565  A
C2100      C2101   1.407       .  A
C2101      C2102   1.397       .  A
C2101      F2108   1.358       .  S
C2102      C2103   1.408   1_565  A
C2102      F2107   1.358       .  S
C2103      C2770   1.480       .  S
C2103      C2920   1.408       .  A
C2104      C2919   1.408       .  A
C2104      F2105   1.358       .  S
C2109      C2110   1.410       .  A
C2109      C2114   1.399       .  A
C2109      F2116   1.358       .  S
C2110      C2111   1.409       .  A
C2111      C2112   1.396       .  A
C2111      F2118   1.358       .  S
C2112      C2113   1.409       .  A
C2112      F2117   1.358       .  S
C2113      C2114   1.409       .  A
C2114      F2115   1.358       .  S
C2119      C2120   1.409       .  A
C2119      C2124   1.399       .  A
C2119      F2126   1.358       .  S
C2120      C2121   1.409       .  A
C2121      C2122   1.397       .  A
C2121      F2128   1.358       .  S
C2122      C2123   1.409       .  A
C2122      F2127   1.358       .  S
C2123      C2124   1.410       .  A
C2124      F2125   1.358       .  S
C2129      C2130   1.405       .  A
C2129      C2134   1.397       .  A
C2129      F2136   1.358       .  S
C2131      C2132   1.400       .  A
C2131      F2138   1.358       .  S
C2132      F2137   1.358       .  S
C2133      C2134   1.405       .  A
C2134      F2135   1.358       .  S
C2139      C2140   1.409       .  A
C2139      C2144   1.399       .  A
C2139      F2146   1.358       .  S
C2140      C2141   1.410       .  A
C2141      C2142   1.397       .  A
C2141      F2148   1.358       .  S
C2142      C2143   1.408       .  A
C2142      F2147   1.358       .  S
C2143      C2144   1.410       .  A
C2144      F2145   1.358       .  S
C2149      C2150   1.410       .  A
C2149      C2154   1.397       .  A
C2149      F2156   1.358       .  S
C2150      C2151   1.409       .  A
C2151      C2152   1.398       .  A
C2151      F2158   1.358       .  S
C2152      C2153   1.409       .  A
C2152      F2157   1.358       .  S
C2153      C2154   1.408       .  A
C2154      F2155   1.358       .  S
C2159      C2164   1.399       .  A
C2159      F2166   1.358       .  S
C2160      C2977   1.408       .  A
C2161      C2976   1.408       .  A
C2161      C2162   1.396       .  A
C2161      F2168   1.358       .  S
C2162      C2979   1.409       .  A
C2162      F2167   1.358       .  S
C2163      C2978   1.409   1_545  A
C2164      F2165   1.358       .  S
C2169      C2170   1.401       .  A
C2169      C2174   1.397   1_556  A
C2169      F2176   1.358       .  S
C2170      C2171   1.402       .  A
C2171      C2172   1.399   1_556  A
C2171      F2178   1.358       .  S
C2172      C2173   1.412       .  A
C2172      F2177   1.358       .  S
C2173      C2174   1.412       .  A
C2174      F2175   1.358       .  S
C2179      C2180   1.408       .  A
C2179      C2184   1.397       .  A
C2179      F2186   1.358       .  S
C2180      C2181   1.408       .  A
C2181      C2182   1.400       .  A
C2181      F2188   1.358       .  S
C2182      C2183   1.409       .  A
C2182      F2187   1.358       .  S
C2183      C2184   1.408       .  A
C2184      F2185   1.358       .  S
C2189      C2190   1.409       .  A
C2189      C2194   1.398       .  A
C2189      F2196   1.358       .  S
C2190      C2191   1.410       .  A
C2191      C2192   1.400       .  A
C2191      F2198   1.358       .  S
C2192      C2193   1.409       .  A
C2192      F2197   1.358       .  S
C2193      C2194   1.410       .  A
C2194      F2195   1.358       .  S
C2199      C3016   1.400       .  A
C2199      C2204   1.398   1_554  A
C2199      F2206   1.358       .  S
C2200      C3015   1.399       .  A
C2200      C2201   1.401   1_565  A
C2201      C2202   1.399   1_554  A
C2201      F2208   1.358       .  S
C2202      C2203   1.411   1_545  A
C2202      F2207   1.358       .  S
C2203      C3020   1.411       .  A
C2204      C3019   1.411       .  A
C2204      F2205   1.358       .  S
C2209      C2214   1.398   1_556  A
C2209      F2216   1.358       .  S
C2210      C2211   1.408       .  A
C2211      C2212   1.399   1_556  A
C2211      F2218   1.358       .  S
C2212      C2213   1.406       .  A
C2212      F2217   1.358       .  S
C2214      F2215   1.358       .  S
C2219      C2220   1.410       .  A
C2219      C2224   1.398       .  A
C2219      F2226   1.358       .  S
C2221      C2222   1.398       .  A
C2221      F2228   1.358       .  S
C2222      F2227   1.358       .  S
C2223      C2224   1.409       .  A
C2224      F2225   1.358       .  S
C2229      C2234   1.398       .  A
C2229      F2236   1.358       .  S
C2230      C2231   1.410       .  A
C2231      C2232   1.399       .  A
C2231      F2238   1.358       .  S
C2232      C2233   1.409       .  A
C2232      F2237   1.358       .  S
C2234      F2235   1.358       .  S
C2239      C2240   1.408       .  A
C2239      C2244   1.399   1_554  A
C2239      F2246   1.358       .  S
C2241      C2242   1.399   1_554  A
C2241      F2248   1.358       .  S
C2242      F2247   1.358       .  S
C2243      C2244   1.407   1_565  A
C2244      F2245   1.358       .  S
C2249      C2250   1.409       .  A
C2249      C2254   1.400       .  A
C2249      F2256   1.358       .  S
C2250      C2251   1.406       .  A
C2251      C2252   1.394       .  A
C2251      F2258   1.358       .  S
C2252      C2253   1.408       .  A
C2252      F2257   1.358       .  S
C2253      C2254   1.408       .  A
C2254      F2255   1.358       .  S
C2259      C3076   1.409       .  A
C2259      C2264   1.399       .  A
C2259      F2266   1.358       .  S
C2260      C3075   1.409       .  A
C2260      C2261   1.408   1_565  A
C2261      C2262   1.397       .  A
C2261      F2268   1.358       .  S
C2262      C2263   1.408   1_545  A
C2262      F2267   1.358       .  S
C2263      C3080   1.409       .  A
C2264      C3079   1.409       .  A
C2264      F2265   1.358       .  S
C2269      C2270   1.406       .  A
C2269      C2274   1.397       .  A
C2269      F2276   1.358       .  S
C2271      C2272   1.400       .  A
C2271      F2278   1.358       .  S
C2272      F2277   1.358       .  S
C2273      C2274   1.407       .  A
C2274      F2275   1.358       .  S
C2279      C2280   1.410       .  A
C2279      C2284   1.397       .  A
C2279      F2286   1.358       .  S
C2280      C2281   1.408       .  A
C2281      C2282   1.396       .  A
C2281      F2288   1.358       .  S
C2282      C2283   1.410       .  A
C2282      F2287   1.358       .  S
C2283      C2284   1.408       .  A
C2284      F2285   1.358       .  S
C2289      C2290   1.409       .  A
C2289      C2294   1.397       .  A
C2289      F2296   1.358       .  S
C2290      C2291   1.409       .  A
C2291      C2292   1.396       .  A
C2291      F2298   1.358       .  S
C2292      C2293   1.408       .  A
C2292      F2297   1.358       .  S
C2293      C2294   1.410       .  A
C2294      F2295   1.358       .  S
C2299      C2304   1.398       .  A
C2299      F2306   1.358       .  S
C2300      C2301   1.406   1_565  A
C2301      C2302   1.396       .  A
C2301      F2308   1.358       .  S
C2302      C2303   1.406   1_545  A
C2302      F2307   1.358       .  S
C2304      F2305   1.358       .  S
C2309      C3126   1.409       .  A
C2309      C2314   1.397       .  A
C2309      F2316   1.358       .  S
C2310      C3125   1.408       .  A
C2310      C2311   1.408   1_565  A
C2311      C2312   1.398       .  A
C2311      F2318   1.358       .  S
C2312      C2313   1.409   1_545  A
C2312      F2317   1.358       .  S
C2313      C3130   1.407       .  A
C2314      C3129   1.408       .  A
C2314      F2315   1.358       .  S
C2319      C3136   1.408       .  A
C2319      C2324   1.398       .  A
C2319      F2326   1.358       .  S
C2320      C3135   1.408       .  A
C2320      C2321   1.408   1_565  A
C2321      C2322   1.398       .  A
C2321      F2328   1.358       .  S
C2322      C2323   1.408   1_545  A
C2322      F2327   1.358       .  S
C2323      C3140   1.409       .  A
C2324      C3139   1.408       .  A
C2324      F2325   1.358       .  S
C2329      C2330   1.410       .  A
C2329      C2334   1.399       .  A
C2329      F2336   1.358       .  S
C2330      C2331   1.409       .  A
C2331      C2332   1.397       .  A
C2331      F2338   1.358       .  S
C2332      C2333   1.409       .  A
C2332      F2337   1.358       .  S
C2333      C2334   1.409       .  A
C2334      F2335   1.358       .  S
C2339      C2340   1.402       .  A
C2339      C2344   1.400       .  A
C2339      F2346   1.358       .  S
C2340      C2341   1.400       .  A
C2341      C2342   1.397       .  A
C2341      F2348   1.358       .  S
C2342      C2343   1.412       .  A
C2342      F2347   1.358       .  S
C2343      C2344   1.412       .  A
C2344      F2345   1.358       .  S
C2349      C2350   1.410       .  A
C2349      C2354   1.398       .  A
C2349      F2356   1.358       .  S
C2350      C2351   1.409       .  A
C2351      C2352   1.399       .  A
C2351      F2358   1.358       .  S
C2352      C2353   1.410       .  A
C2352      F2357   1.358       .  S
C2353      C2354   1.409       .  A
C2354      F2355   1.358       .  S
C2359      C2360   1.409       .  A
C2359      C2364   1.399       .  A
C2359      F2366   1.358       .  S
C2360      C2361   1.408       .  A
C2361      C2362   1.399       .  A
C2361      F2368   1.358       .  S
C2362      C2363   1.410       .  A
C2362      F2367   1.358       .  S
C2363      C2364   1.408       .  A
C2364      F2365   1.358       .  S
C2369      C3186   1.408       .  A
C2369      C2374   1.398       .  A
C2369      F3192   1.358       .  S
C2370      C3185   1.407   1_545  A
C2370      C2371   1.408       .  A
C2371      C2372   1.398       .  A
C2371      F3194   1.358       .  S
C2372      C2373   1.406       .  A
C2372      F3193   1.358       .  S
C2373      C3190   1.407   1_545  A
C2374      C3189   1.407       .  A
C2374      F3191   1.358       .  S
F2375      C3190   1.358       .  S
F2376      C3185   1.358       .  S
F2377      C3188   1.358       .  S
F2378      C3187   1.358       .  S
C2379      C2380   1.411       .  A
C2379      C2384   1.399       .  A
C2379      F2386   1.358       .  S
C2380      C3197   1.409   1_545  A
C2381      C3196   1.409       .  A
C2381      C2382   1.396       .  A
C2381      F2388   1.358       .  S
C2382      C3199   1.403       .  A
C2382      F2387   1.358       .  S
C2383      C3198   1.404   1_545  A
C2383      C2384   1.404       .  A
C2384      F2385   1.358       .  S
C2389      C2390   1.410       .  A
C2389      C2394   1.401       .  A
C2389      F2396   1.358       .  S
C2391      C2392   1.397       .  A
C2391      F2398   1.358       .  S
C2392      F2397   1.358       .  S
C2393      C2394   1.410       .  A
C2394      F2395   1.358       .  S
C2399      C2404   1.398       .  A
C2399      F2406   1.358       .  S
C2400      C2401   1.408       .  A
C2401      C2402   1.398       .  A
C2401      F2408   1.358       .  S
C2402      C2403   1.406       .  A
C2402      F2407   1.358       .  S
C2404      F2405   1.358       .  S
C2409      C2410   1.409       .  A
C2409      C2414   1.397       .  A
C2409      F2416   1.358       .  S
C2411      C2412   1.399       .  A
C2411      F2418   1.358       .  S
C2412      C2413   1.410       .  A
C2412      F2417   1.358       .  S
C2414      F2415   1.358       .  S
C2419      C2424   1.401       .  A
C2419      F2426   1.358       .  S
C2420      C2421   1.410   1_455  A
C2421      C2422   1.397       .  A
C2421      F2428   1.358       .  S
C2422      F2427   1.358       .  S
C2423      C2424   1.410       .  A
C2424      F2425   1.358       .  S
C2429      C2430   1.409   1_545  A
C2429      C2434   1.399       .  A
C2429      F2436   1.358       .  S
C2431      C2432   1.398       .  A
C2431      F2438   1.358       .  S
C2432      F2437   1.358       .  S
C2433      C2434   1.408       .  A
C2434      F2435   1.358       .  S
C2439      C2440   1.407       .  A
C2439      C2444   1.398       .  A
C2439      F2446   1.358       .  S
C2441      C2442   1.396       .  A
C2441      F2448   1.358       .  S
C2442      F2447   1.358       .  S
C2443      C2444   1.407       .  A
C2444      F2445   1.358       .  S
O2450      V2457   1.898       .  S
O2451      V2457   1.897       .  S
O2451      C2461   1.264       .  A
O2452      V2457   1.897       .  S
O2452      C2462   1.264       .  A
O2453      V2458   1.896       .  S
O2454      V2458   1.897       .  S
O2455      C2460   1.264   1_655  A
O2456      V2458   1.897       .  S
O2456      C2459   1.264   1_655  A
C2459      C3229   1.487       .  S
C2460      C3236   1.486       .  S
C2461      C3256   1.476       .  S
C2462      C3249   1.483       .  S
O2463      V2471   1.897       .  S
O2463      C2473   1.264       .  A
O2464      V2471   1.897       .  S
O2464      C2474   1.265       .  A
O2465      V2471   1.898       .  S
O2465      C2475   1.265       .  A
O2466      V2471   1.900       .  S
O2466      C2476   1.265       .  A
O2467      V2472   1.898       .  S
O2468      V2472   1.900       .  S
O2469      V2472   1.900       .  S
O2470      V2472   1.897       .  S
C2473      C3239   1.485       .  S
C2474      C3226   1.487       .  S
C2475      C3216   1.481       .  S
C2476      C3209   1.487       .  S
O2477      C2487   1.265       .  A
O2478      V2485   1.895       .  S
O2478      C2488   1.264       .  A
O2479      V2485   1.897       .  S
O2479      C2489   1.263       .  A
O2480      V2485   1.897       .  S
O2480      C2490   1.264       .  A
O2481      V2486   1.894       .  S
O2482      V2486   1.894       .  S
O2483      C2488   1.266       .  A
O2484      V2486   1.895       .  S
O2484      C2487   1.265       .  A
C2487      C3166   1.487       .  S
C2488      C3176   1.483       .  S
C2489      C3199   1.471       .  S
C2490      C3189   1.476       .  S
O2491      V2499   1.903       .  S
O2491      C2501   1.266       .  A
O2492      V2499   1.901       .  S
O2492      C2502   1.265       .  A
O2493      V2499   1.898       .  S
O2493      C2503   1.263       .  A
O2494      V2499   1.898       .  S
O2494      C2504   1.264       .  A
O2495      V2500   1.896       .  S
O2495      C2504   1.264       .  A
O2496      V2500   1.898       .  S
O2496      C2503   1.263       .  A
O2497      V2500   1.898       .  S
O2497      C2502   1.265       .  A
O2498      V2500   1.897       .  S
O2498      C2501   1.264       .  A
V2499      V2500   2.084       .  T
C2501      C3179   1.484       .  S
C2502      C3169   1.487       .  S
C2503      C3156   1.466       .  S
C2504      C3146   1.484       .  S
O2505      V2513   1.900       .  S
O2506      V2513   1.898       .  S
O2508      V2513   1.895       .  S
O2509      C2518   1.265       .  A
O2510      V2514   1.895       .  S
O2510      C2517   1.264       .  A
O2511      V2514   1.897       .  S
O2511      C2516   1.264       .  A
O2512      V2514   1.894       .  S
O2512      C2515   1.264       .  A
C2515      C3116   1.474       .  S
C2516      C3259   1.476       .  S
C2517      C3136   1.480       .  S
C2518      C3126   1.484       .  S
O2519      C2529   1.264       .  A
O2520      V2527   1.893       .  S
O2520      C2530   1.264       .  A
O2521      V2527   1.899       .  S
O2522      V2527   1.899       .  S
O2523      V2528   1.898       .  S
O2523      C2532   1.264       .  A
O2524      V2528   1.898       .  S
O2524      C2531   1.264       .  A
O2525      C2530   1.264       .  A
O2526      V2528   1.896       .  S
O2526      C2529   1.264       .  A
C2529      C3106   1.483       .  S
C2530      C3096   1.483       .  S
C2531      C3219   1.479       .  S
C2532      C3086   1.479       .  S
O2533      V2541   1.896       .  S
O2533      C2543   1.264       .  A
O2534      V2541   1.899       .  S
O2534      C2544   1.264       .  A
O2535      V2541   1.898       .  S
O2535      C2545   1.265       .  A
O2536      V2541   1.899       .  S
O2536      C2546   1.265       .  A
O2537      V2542   1.898       .  S
O2538      V2542   1.899       .  S
O2539      V2542   1.897       .  S
O2540      V2542   1.901       .  S
C2543      C3076   1.484       .  S
C2544      C3196   1.481       .  S
C2545      C3139   1.480       .  S
C2546      C3129   1.483       .  S
O2547      V2555   1.894       .  S
O2547      C2557   1.264       .  A
O2548      V2555   1.897       .  S
O2548      C2558   1.264       .  A
O2549      V2555   1.894       .  S
O2549      C2559   1.264       .  A
O2550      V2555   1.895       .  S
O2550      C2560   1.264       .  A
O2551      V2556   1.896       .  S
O2551      C2560   1.264       .  A
O2552      V2556   1.897       .  S
O2552      C2559   1.264       .  A
O2553      V2556   1.898       .  S
O2553      C2558   1.265       .  A
O2554      V2556   1.901       .  S
O2554      C2557   1.265       .  A
V2555      V2556   2.084       .  T
C2557      C3066   1.485       .  S
C2558      C3159   1.485       .  S
C2559      C3109   1.482       .  S
C2560      C3099   1.483       .  S
O2561      V2569   1.898       .  S
O2562      V2569   1.897       .  S
O2564      V2569   1.896       .  S
O2565      C2574   1.265       .  A
O2566      V2570   1.895       .  S
O2566      C2573   1.264       .  A
O2567      V2570   1.899       .  S
O2567      C2572   1.265       .  A
O2568      V2570   1.897       .  S
O2568      C2571   1.264       .  A
C2571      C3056   1.480       .  S
C2572      C3246   1.485       .  S
C2573      C3049   1.486       .  S
C2574      C3036   1.487       .  S
O2575      V2583   1.899       .  S
O2576      V2583   1.901       .  S
O2577      V2583   1.897       .  S
O2577      C2587   1.264       .  A
O2578      V2583   1.900       .  S
O2578      C2588   1.265       .  A
O2579      V2584   1.896       .  S
O2580      V2584   1.900       .  S
O2581      V2584   1.896       .  S
O2581      C2586   1.264   1_655  A
O2582      V2584   1.898       .  S
O2582      C2585   1.264       .  A
C2587      C3046   1.486       .  S
C2588      C3039   1.486       .  S
O2589      C2599   1.266       .  A
O2590      V2597   1.898       .  S
O2590      C2600   1.265       .  A
O2591      V2597   1.897       .  S
O2591      C2601   1.264       .  A
O2592      V2597   1.898       .  S
O2592      C2602   1.263       .  A
O2593      V2598   1.897       .  S
O2594      V2598   1.896       .  S
O2595      C2600   1.265       .  A
O2596      V2598   1.898       .  S
O2596      C2599   1.264       .  A
C2599      C2996   1.485       .  S
C2600      C3009   1.487       .  S
C2601      C3186   1.478       .  S
C2602      C3016   1.464       .  S
O2603      V2611   1.898       .  S
O2603      C2613   1.264       .  A
O2604      V2611   1.896       .  S
O2604      C2614   1.264       .  A
O2605      V2611   1.900       .  S
O2605      C2615   1.265       .  A
O2606      V2611   1.900       .  S
O2606      C2616   1.265       .  A
O2607      V2612   1.899       .  S
O2607      C2616   1.265       .  A
O2608      V2612   1.899       .  S
O2608      C2615   1.265       .  A
O2609      V2612   1.897       .  S
O2609      C2614   1.264       .  A
O2610      V2612   1.896       .  S
O2610      C2613   1.264       .  A
V2611      V2612   2.083       .  T
C2613      C2989   1.484       .  S
C2614      C3149   1.484       .  S
C2615      C2999   1.486       .  S
C2616      C3006   1.488       .  S
O2617      C2627   1.266       .  A
O2618      C2628   1.265       .  A
O2619      V2625   1.899       .  S
O2620      V2625   1.900       .  S
O2621      V2626   1.895       .  S
O2622      V2626   1.897       .  S
O2623      C2628   1.265       .  A
O2624      C2627   1.263       .  A
C2627      C2969   1.485       .  S
C2628      C2956   1.487       .  S
C2629      C3059   1.476       .  S
C2630      C2976   1.484       .  S
O2631      V2639   1.895       .  S
O2631      C2641   1.264       .  A
O2632      C2642   1.265       .  A
O2633      V2639   1.897       .  S
O2633      C2643   1.264       .  A
O2634      V2639   1.896       .  S
O2634      C2644   1.264       .  A
O2635      V2640   1.899       .  S
O2636      V2640   1.900       .  S
O2637      V2640   1.897       .  S
O2637      C2642   1.265       .  A
O2638      C2641   1.265       .  A
C2641      C2936   1.486       .  S
C2642      C2926   1.486       .  S
C2643      C2946   1.472       .  S
C2644      C3026   1.480       .  S
O2645      V2653   1.900       .  S
O2645      C2655   1.265       .  A
O2646      V2653   1.899       .  S
O2646      C2656   1.265       .  A
O2647      C2657   1.265       .  A
O2648      V2653   1.896       .  S
O2648      C2658   1.264       .  A
O2649      C2658   1.265       .  A
O2650      V2654   1.897       .  S
O2650      C2657   1.265       .  A
O2651      V2654   1.896       .  S
O2652      V2654   1.895       .  S
C2655      C3019   1.483       .  S
C2656      C2916   1.480       .  S
C2657      C2939   1.486       .  S
C2658      C2929   1.486       .  S
O2659      V2667   1.898       .  S
O2659      C2669   1.265       .  A
O2660      V2667   1.894       .  S
O2660      C2670   1.264       .  A
O2661      V2667   1.897       .  S
O2661      C2671   1.263       .  A
O2662      V2667   1.899       .  S
O2662      C2672   1.265       .  A
O2663      V2668   1.896       .  S
O2663      C2672   1.264       .  A
O2664      V2668   1.896       .  S
O2664      C2671   1.263       .  A
O2665      V2668   1.901       .  S
O2665      C2670   1.266       .  A
O2666      V2668   1.899       .  S
O2666      C2669   1.265       .  A
V2667      V2668   2.084       .  T
C2669      C2959   1.486       .  S
C2670      C2966   1.485       .  S
C2671      C2986   1.466       .  S
C2672      C2906   1.485       .  S
O2673      V2681   1.894       .  S
O2673      C2683   1.264       .  A
O2674      V2681   1.895       .  S
O2674      C2684   1.263       .  A
O2675      V2681   1.897       .  S
O2675      C2685   1.265       .  A
O2676      C2686   1.264       .  A
O2677      V2682   1.896       .  S
O2679      V2682   1.900       .  S
O2680      V2682   1.902       .  S
C2683      C3119   1.475       .  S
C2684      C2896   1.469       .  S
C2685      C2886   1.483       .  S
C2686      C2879   1.482       .  S
O2687      V2695   1.897       .  S
O2687      C2697   1.264       .  A
O2688      C2698   1.264       .  A
O2689      V2695   1.900       .  S
O2690      V2695   1.900       .  S
O2691      V2696   1.898       .  S
O2691      C2700   1.264       .  A
O2692      V2696   1.897       .  S
O2692      C2699   1.264       .  A
O2693      V2696   1.896       .  S
O2693      C2698   1.264       .  A
O2694      C2697   1.265       .  A
C2697      C2846   1.484       .  S
C2698      C2856   1.480       .  S
C2699      C2866   1.479       .  S
C2700      C3089   1.479       .  S
O2701      V2709   1.897       .  S
O2702      V2709   1.895       .  S
O2703      V2709   1.901       .  S
O2704      V2709   1.904       .  S
O2705      V2710   1.895       .  S
O2705      C2714   1.264       .  A
O2706      V2710   1.896       .  S
O2706      C2713   1.263       .  A
O2707      V2710   1.896       .  S
O2707      C2712   1.264       .  A
O2708      V2710   1.896       .  S
O2708      C2711   1.264       .  A
C2711      C2889   1.484       .  S
C2712      C2876   1.480       .  S
C2713      C2839   1.473       .  S
C2714      C3079   1.485       .  S
O2715      V2723   1.893       .  S
O2715      C2725   1.264       .  A
O2716      V2723   1.894       .  S
O2716      C2726   1.262       .  A
O2717      V2723   1.895       .  S
O2717      C2727   1.264       .  A
O2718      V2723   1.897       .  S
O2718      C2728   1.264       .  A
O2719      V2724   1.893       .  S
O2719      C2728   1.264       .  A
O2720      V2724   1.899       .  S
O2720      C2727   1.265       .  A
O2721      V2724   1.900       .  S
O2721      C2726   1.264       .  A
O2722      V2724   1.902       .  S
O2722      C2725   1.265       .  A
V2723      V2724   2.085       .  T
C2725      C3069   1.486       .  S
C2726      C2826   1.465       .  S
C2727      C2849   1.484       .  S
C2728      C2859   1.481       .  S
O2729      C2739   1.266       .  A
O2730      C2740   1.265       .  A
O2731      V2737   1.891       .  S
O2732      V2737   1.895       .  S
O2733      V2738   1.899       .  S
O2734      V2738   1.901       .  S
O2735      C2740   1.265       .  A
O2736      C2739   1.263       .  A
C2739      C2806   1.488       .  S
C2740      C2816   1.486       .  S
C2741      C2979   1.484       .  S
C2742      C2899   1.483       .  S
O2743      V2751   1.896       .  S
O2743      C2753   1.265       .  A
O2744      C2754   1.265       .  A
O2745      V2751   1.898       .  S
O2746      V2751   1.899       .  S
O2747      V2752   1.898       .  S
O2747      C2756   1.264       .  A
O2748      V2752   1.899       .  S
O2748      C2755   1.263       .  A
O2749      V2752   1.896       .  S
O2749      C2754   1.265       .  A
O2750      C2753   1.265       .  A
C2753      C2786   1.485       .  S
C2754      C2799   1.486       .  S
C2755      C2869   1.464       .  S
C2756      C2949   1.473       .  S
O2757      C2767   1.264       .  A
O2758      V2765   1.896       .  S
O2758      C2768   1.264       .  A
O2759      V2765   1.898       .  S
O2760      V2765   1.898       .  S
O2761      V2766   1.896       .  S
O2761      C2770   1.264   1_565  A
O2762      V2766   1.897       .  S
O2762      C2769   1.264   1_565  A
O2763      C2768   1.265       .  A
O2764      V2766   1.897       .  S
O2764      C2767   1.265       .  A
C2767      C2796   1.486       .  S
C2768      C2789   1.486       .  S
C2769      C2836   1.484   1_545  S
O2771      V2779   1.899       .  S
O2771      C2781   1.264       .  A
O2772      V2779   1.894       .  S
O2772      C2782   1.264       .  A
O2773      V2779   1.896       .  S
O2773      C2783   1.264       .  A
O2774      V2779   1.896       .  S
O2774      C2784   1.263       .  A
O2775      V2780   1.899       .  S
O2775      C2784   1.263       .  A
O2776      V2780   1.899       .  S
O2776      C2783   1.265       .  A
O2777      V2780   1.904       .  S
O2777      C2782   1.266       .  A
O2778      V2780   1.899       .  S
O2778      C2781   1.265       .  A
V2779      V2780   2.084       .  T
C2781      C2819   1.485       .  S
C2782      C2809   1.487       .  S
C2783      C2909   1.485       .  S
C2784      C2829   1.467       .  S
C2785      C2786   1.409       .  A
C2785      C2790   1.396       .  A
C2785      F2792   1.358       .  S
C2786      C2787   1.410       .  A
C2787      C2788   1.399       .  A
C2787      F2794   1.358       .  S
C2788      C2789   1.410       .  A
C2788      F2793   1.358       .  S
C2789      C2790   1.409       .  A
C2790      F2791   1.358       .  S
C2795      C2796   1.409       .  A
C2795      C2800   1.396       .  A
C2795      F2802   1.358       .  S
C2796      C2797   1.410       .  A
C2797      C2798   1.399       .  A
C2797      F2804   1.358       .  S
C2798      C2799   1.410       .  A
C2798      F2803   1.358       .  S
C2799      C2800   1.409       .  A
C2800      F2801   1.358       .  S
C2805      C2806   1.411       .  A
C2805      C2810   1.400       .  A
C2805      F2812   1.358       .  S
C2806      C2807   1.408       .  A
C2807      C2808   1.398       .  A
C2807      F2814   1.358       .  S
C2808      C2809   1.410       .  A
C2808      F2813   1.358       .  S
C2809      C2810   1.409       .  A
C2810      F2811   1.358       .  S
C2815      C2816   1.410       .  A
C2815      C2820   1.400       .  A
C2815      F2822   1.358       .  S
C2816      C2817   1.409       .  A
C2817      C2818   1.397       .  A
C2817      F2824   1.358       .  S
C2818      C2819   1.408       .  A
C2818      F2823   1.358       .  S
C2819      C2820   1.410       .  A
C2820      F2821   1.358       .  S
C2825      C2826   1.403       .  A
C2825      C2830   1.398       .  A
C2825      F2832   1.358       .  S
C2826      C2827   1.404       .  A
C2827      C2828   1.399       .  A
C2827      F2834   1.358       .  S
C2828      C2829   1.404       .  A
C2828      F2833   1.358       .  S
C2829      C2830   1.404       .  A
C2830      F2831   1.358       .  S
C2835      C2836   1.410       .  A
C2835      C2840   1.399       .  A
C2835      F2842   1.358       .  S
C2837      C2838   1.398       .  A
C2837      F2844   1.358       .  S
C2838      C2839   1.405       .  A
C2838      F2843   1.358       .  S
C2840      F2841   1.358       .  S
C2845      C2846   1.410       .  A
C2845      C2850   1.398       .  A
C2845      F2852   1.358       .  S
C2846      C2847   1.408       .  A
C2847      C2848   1.396       .  A
C2847      F2854   1.358       .  S
C2848      C2849   1.409       .  A
C2848      F2853   1.358       .  S
C2849      C2850   1.408       .  A
C2850      F2851   1.358       .  S
C2855      C2856   1.408       .  A
C2855      C2860   1.396       .  A
C2855      F2862   1.358       .  S
C2856      C2857   1.408       .  A
C2857      C2858   1.397       .  A
C2857      F2864   1.358       .  S
C2858      C2859   1.409       .  A
C2858      F2863   1.358       .  S
C2859      C2860   1.408       .  A
C2860      F2861   1.358       .  S
C2865      C2870   1.399       .  A
C2865      F2872   1.358       .  S
C2866      C2867   1.409       .  A
C2867      C2868   1.398       .  A
C2867      F2874   1.358       .  S
C2868      C2869   1.401       .  A
C2868      F2873   1.358       .  S
C2870      F2871   1.358       .  S
C2875      C2876   1.407       .  A
C2875      C2880   1.396       .  A
C2875      F2882   1.358       .  S
C2877      C2878   1.397       .  A
C2877      F2884   1.358       .  S
C2878      F2883   1.358       .  S
C2879      C2880   1.409       .  A
C2880      F2881   1.358       .  S
C2885      C2886   1.409       .  A
C2885      C2890   1.397       .  A
C2885      F2892   1.358       .  S
C2887      C2888   1.397       .  A
C2887      F2894   1.358       .  S
C2888      F2893   1.358       .  S
C2889      C2890   1.409       .  A
C2890      F2891   1.358       .  S
C2895      C2900   1.398       .  A
C2895      F2902   1.358       .  S
C2896      C2897   1.403       .  A
C2897      C2898   1.398       .  A
C2897      F2904   1.358       .  S
C2898      C2899   1.410       .  A
C2898      F2903   1.358       .  S
C2900      F2901   1.358       .  S
C2905      C2906   1.409       .  A
C2905      C2910   1.397       .  A
C2905      F2912   1.358       .  S
C2906      C2907   1.409       .  A
C2907      C2908   1.399       .  A
C2907      F2914   1.358       .  S
C2908      C2909   1.410       .  A
C2908      F2913   1.358       .  S
C2909      C2910   1.409       .  A
C2910      F2911   1.358       .  S
C2915      C2920   1.400       .  A
C2915      F2922   1.358       .  S
C2916      C2917   1.408       .  A
C2917      C2918   1.397       .  A
C2917      F2924   1.358       .  S
C2918      C2919   1.408       .  A
C2918      F2923   1.358       .  S
C2920      F2921   1.358       .  S
C2925      C2926   1.409       .  A
C2925      C2930   1.398       .  A
C2925      F2932   1.358       .  S
C2926      C2927   1.409       .  A
C2927      C2928   1.398       .  A
C2927      F2934   1.358       .  S
C2928      C2929   1.410       .  A
C2928      F2933   1.358       .  S
C2929      C2930   1.409       .  A
C2930      F2931   1.358       .  S
C2935      C2936   1.409       .  A
C2935      C2940   1.399       .  A
C2935      F2942   1.358       .  S
C2936      C2937   1.410       .  A
C2937      C2938   1.397       .  A
C2937      F2944   1.358       .  S
C2938      C2939   1.409       .  A
C2938      F2943   1.358       .  S
C2939      C2940   1.410       .  A
C2940      F2941   1.358       .  S
C2945      C2946   1.405       .  A
C2945      C2950   1.397       .  A
C2945      F2952   1.358       .  S
C2947      C2948   1.400       .  A
C2947      F2954   1.358       .  S
C2948      F2953   1.358       .  S
C2949      C2950   1.405       .  A
C2950      F2951   1.358       .  S
C2955      C2956   1.409       .  A
C2955      C2960   1.397       .  A
C2955      F2962   1.358       .  S
C2956      C2957   1.410       .  A
C2957      C2958   1.399       .  A
C2957      F2964   1.358       .  S
C2958      C2959   1.409       .  A
C2958      F2963   1.358       .  S
C2959      C2960   1.409       .  A
C2960      F2961   1.358       .  S
C2965      C2966   1.410       .  A
C2965      C2970   1.398       .  A
C2965      F2972   1.358       .  S
C2966      C2967   1.408       .  A
C2967      C2968   1.397       .  A
C2967      F2974   1.358       .  S
C2968      C2969   1.410       .  A
C2968      F2973   1.358       .  S
C2969      C2970   1.408       .  A
C2970      F2971   1.358       .  S
C2975      C2980   1.400       .  A
C2975      F2982   1.358       .  S
C2977      C2978   1.395       .  A
C2977      F2984   1.358       .  S
C2978      F2983   1.358       .  S
C2980      F2981   1.358       .  S
C2985      C2986   1.401       .  A
C2985      C2990   1.397   1_556  A
C2985      F2992   1.358       .  S
C2986      C2987   1.401       .  A
C2987      C2988   1.398   1_556  A
C2987      F2994   1.358       .  S
C2988      C2989   1.412       .  A
C2988      F2993   1.358       .  S
C2989      C2990   1.412       .  A
C2990      F2991   1.358       .  S
C2995      C2996   1.408       .  A
C2995      C3000   1.399       .  A
C2995      F3002   1.358       .  S
C2996      C2997   1.409       .  A
C2997      C2998   1.399       .  A
C2997      F3004   1.358       .  S
C2998      C2999   1.409       .  A
C2998      F3003   1.358       .  S
C2999      C3000   1.409       .  A
C3000      F3001   1.358       .  S
C3005      C3006   1.410       .  A
C3005      C3010   1.399       .  A
C3005      F3012   1.358       .  S
C3006      C3007   1.410       .  A
C3007      C3008   1.399       .  A
C3007      F3014   1.358       .  S
C3008      C3009   1.409       .  A
C3008      F3013   1.358       .  S
C3009      C3010   1.410       .  A
C3010      F3011   1.358       .  S
C3015      C3020   1.397   1_554  A
C3015      F3022   1.358       .  S
C3016      C3017   1.401       .  A
C3017      C3018   1.399   1_554  A
C3017      F3024   1.358       .  S
C3018      C3019   1.411       .  A
C3018      F3023   1.358       .  S
C3020      F3021   1.358       .  S
C3025      C3030   1.399   1_556  A
C3025      F3032   1.358       .  S
C3026      C3027   1.408       .  A
C3027      C3028   1.398   1_556  A
C3027      F3034   1.358       .  S
C3028      C3029   1.405       .  A
C3028      F3033   1.358       .  S
C3030      F3031   1.358       .  S
C3035      C3036   1.409       .  A
C3035      C3040   1.399       .  A
C3035      F3042   1.358       .  S
C3037      C3038   1.397       .  A
C3037      F3044   1.358       .  S
C3038      F3043   1.358       .  S
C3039      C3040   1.410       .  A
C3040      F3041   1.358       .  S
C3045      C3050   1.399       .  A
C3045      F3052   1.358       .  S
C3046      C3047   1.409       .  A
C3047      C3048   1.397       .  A
C3047      F3054   1.358       .  S
C3048      C3049   1.409       .  A
C3048      F3053   1.358       .  S
C3050      F3051   1.358       .  S
C3055      C3056   1.408       .  A
C3055      C3060   1.397   1_554  A
C3055      F3062   1.358       .  S
C3057      C3058   1.398   1_554  A
C3057      F3064   1.358       .  S
C3058      F3063   1.358       .  S
C3059      C3060   1.406       .  A
C3060      F3061   1.358       .  S
C3065      C3066   1.410       .  A
C3065      C3070   1.400       .  A
C3065      F3072   1.358       .  S
C3066      C3067   1.409       .  A
C3067      C3068   1.395       .  A
C3067      F3074   1.358       .  S
C3068      C3069   1.409       .  A
C3068      F3073   1.358       .  S
C3069      C3070   1.410       .  A
C3070      F3071   1.358       .  S
C3075      C3080   1.401       .  A
C3075      F3082   1.358       .  S
C3076      C3077   1.408       .  A
C3077      C3078   1.397       .  A
C3077      F3084   1.358       .  S
C3078      C3079   1.409       .  A
C3078      F3083   1.358       .  S
C3080      F3081   1.358       .  S
C3085      C3086   1.407       .  A
C3085      C3090   1.398       .  A
C3085      F3092   1.358       .  S
C3087      C3088   1.399       .  A
C3087      F3094   1.358       .  S
C3088      F3093   1.358       .  S
C3089      C3090   1.407       .  A
C3090      F3091   1.358       .  S
C3095      C3096   1.409       .  A
C3095      C3100   1.396       .  A
C3095      F3102   1.358       .  S
C3096      C3097   1.409       .  A
C3097      C3098   1.397       .  A
C3097      F3104   1.358       .  S
C3098      C3099   1.409       .  A
C3098      F3103   1.358       .  S
C3099      C3100   1.409       .  A
C3100      F3101   1.358       .  S
C3105      C3106   1.408       .  A
C3105      C3110   1.396       .  A
C3105      F3112   1.358       .  S
C3106      C3107   1.409       .  A
C3107      C3108   1.398       .  A
C3107      F3114   1.358       .  S
C3108      C3109   1.409       .  A
C3108      F3113   1.358       .  S
C3109      C3110   1.409       .  A
C3110      F3111   1.358       .  S
C3115      C3120   1.400       .  A
C3115      F3122   1.358       .  S
C3116      C3117   1.406       .  A
C3117      C3118   1.396       .  A
C3117      F3124   1.358       .  S
C3118      C3119   1.406       .  A
C3118      F3123   1.358       .  S
C3120      F3121   1.358       .  S
C3125      C3130   1.397       .  A
C3125      F3132   1.358       .  S
C3126      C3127   1.409       .  A
C3127      C3128   1.399       .  A
C3127      F3134   1.358       .  S
C3128      C3129   1.409       .  A
C3128      F3133   1.358       .  S
C3130      F3131   1.358       .  S
C3135      C3140   1.399       .  A
C3135      F3142   1.358       .  S
C3136      C3137   1.408       .  A
C3137      C3138   1.397       .  A
C3137      F3144   1.358       .  S
C3138      C3139   1.407       .  A
C3138      F3143   1.358       .  S
C3140      F3141   1.358       .  S
C3145      C3146   1.409       .  A
C3145      C3150   1.398       .  A
C3145      F3152   1.358       .  S
C3146      C3147   1.409       .  A
C3147      C3148   1.396       .  A
C3147      F3154   1.358       .  S
C3148      C3149   1.409       .  A
C3148      F3153   1.358       .  S
C3149      C3150   1.410       .  A
C3150      F3151   1.358       .  S
C3155      C3156   1.401       .  A
C3155      C3160   1.399       .  A
C3155      F3162   1.358       .  S
C3156      C3157   1.400       .  A
C3157      C3158   1.397       .  A
C3157      F3164   1.358       .  S
C3158      C3159   1.411       .  A
C3158      F3163   1.358       .  S
C3159      C3160   1.413       .  A
C3160      F3161   1.358       .  S
C3165      C3166   1.410       .  A
C3165      C3170   1.401       .  A
C3165      F3172   1.358       .  S
C3166      C3167   1.409       .  A
C3167      C3168   1.396       .  A
C3167      F3174   1.358       .  S
C3168      C3169   1.409       .  A
C3168      F3173   1.358       .  S
C3169      C3170   1.410       .  A
C3170      F3171   1.358       .  S
C3175      C3176   1.409       .  A
C3175      C3180   1.398       .  A
C3175      F3182   1.358       .  S
C3176      C3177   1.407       .  A
C3177      C3178   1.400       .  A
C3177      F3184   1.358       .  S
C3178      C3179   1.410       .  A
C3178      F3183   1.358       .  S
C3179      C3180   1.407       .  A
C3180      F3181   1.358       .  S
C3185      C3190   1.397       .  A
C3186      C3187   1.407       .  A
C3187      C3188   1.397       .  A
C3188      C3189   1.406       .  A
C3195      C3196   1.410       .  A
C3195      C3200   1.399       .  A
C3195      F3202   1.358       .  S
C3197      C3198   1.397       .  A
C3197      F3204   1.358       .  S
C3198      F3203   1.358       .  S
C3199      C3200   1.404       .  A
C3200      F3201   1.358       .  S
C3205      C3206   1.410       .  A
C3205      C3210   1.400       .  A
C3205      F3212   1.358       .  S
C3207      C3208   1.397       .  A
C3207      F3214   1.358       .  S
C3208      F3213   1.358       .  S
C3209      C3210   1.410       .  A
C3210      F3211   1.358       .  S
C3215      C3220   1.399       .  A
C3215      F3222   1.358       .  S
C3216      C3217   1.408       .  A
C3217      C3218   1.398       .  A
C3217      F3224   1.358       .  S
C3218      C3219   1.406       .  A
C3218      F3223   1.358       .  S
C3220      F3221   1.358       .  S
C3225      C3226   1.410       .  A
C3225      C3230   1.398       .  A
C3225      F3232   1.358       .  S
C3227      C3228   1.399       .  A
C3227      F3234   1.358       .  S
C3228      C3229   1.410   1_655  A
C3228      F3233   1.358       .  S
C3230      F3231   1.358       .  S
C3235      C3240   1.398       .  A
C3235      F3242   1.358       .  S
C3236      C3237   1.410   1_455  A
C3237      C3238   1.397       .  A
C3237      F3244   1.358       .  S
C3238      F3243   1.358       .  S
C3239      C3240   1.410       .  A
C3240      F3241   1.358       .  S
C3245      C3246   1.409       .  A
C3245      C3250   1.398       .  A
C3245      F3252   1.358       .  S
C3247      C3248   1.397       .  A
C3247      F3254   1.358       .  S
C3248      F3253   1.358       .  S
C3249      C3250   1.408       .  A
C3250      F3251   1.358       .  S
C3255      C3256   1.407       .  A
C3255      C3260   1.399       .  A
C3255      F3262   1.358       .  S
C3257      C3258   1.397       .  A
C3257      F3264   1.358       .  S
C3258      F3263   1.358       .  S
C3259      C3260   1.407       .  A
C3260      F3261   1.358       .  S
