geometry optimzed in LAMMPS
_audit_creation_date              2020-12-01 
_audit_creation_method            'lammps2cif' 
_symmetry_space_group_name_H-M    'P1' 
_symmetry_Int_Tables_number       1 
_symmetry_cell_setting            triclinic 
loop_ 
_symmetry_equiv_pos_as_xyz 
  x,y,z 
_cell_length_a                    31.34734212 
_cell_length_b                    30.396782688690298 
_cell_length_c                    32.50477606185509 
_cell_angle_alpha                 89.91992822503377 
_cell_angle_beta                  90.41196575702102 
_cell_angle_gamma                 120.76189581686856 
loop_ 
_atom_site_label 
_atom_site_type_symbol 
_atom_site_fract_x 
_atom_site_fract_y 
_atom_site_fract_z 
_atom_site_charge 
C1          C  0.04404104  0.02989874  0.25859130     0.80100
N2          N  0.07114885  0.08230429  0.25724278    -0.78200
C3          C  0.04824787  0.11037912  0.25499351     0.82500
N4          N  0.99740400  0.08492329  0.25292617    -0.78200
C5          C  0.96973900  0.03240818  0.25356174     0.82600
N6          N  0.99349008  0.00541522  0.25668104    -0.79900
C7          C  0.33923390  0.76805823  0.25799825     0.80100
N8          N  0.38986498  0.79332444  0.25710450    -0.78200
C9          C  0.41499058  0.76755468  0.25751015     0.82500
N10         N  0.38830007  0.71541178  0.25923980    -0.78200
C11         C  0.33778757  0.68911443  0.25976462     0.82600
N12         N  0.31357475  0.71570838  0.25869740    -0.79900
C13         C  0.73348800  0.62922549  0.03098516     0.80100
N14         N  0.71084427  0.58199974  0.04957280    -0.78200
C15         C  0.70405244  0.57738699  0.09146485     0.82500
N16         N  0.72070187  0.62065360  0.11408640    -0.78200
C17         C  0.74284518  0.66760277  0.09660899     0.82600
N18         N  0.74919000  0.67134994  0.05524120    -0.79900
Zn19       Zn  0.11156963  0.94116361  0.30429818     1.49700
Zn20       Zn  0.12457955  0.86373086  0.24433145     1.49400
Zn21       Zn  0.12762712  0.96273052  0.21174942     1.49100
Zn22       Zn  0.21702874  0.96717932  0.26696537     1.49500
O23         O  0.14544448  0.93398953  0.25733765    -1.84300
O24         O  0.05508727  0.87034959  0.31790953    -0.74900
O25         O  0.11749409  0.85332625  0.18273721    -0.74700
O26         O  0.07621919  0.98348407  0.22457629    -0.74200
O27         O  0.06344550  0.81702806  0.27662893    -0.74900
O28         O  0.08456593  0.99038964  0.29269596    -0.74500
O29         O  0.11747103  0.92169512  0.15885469    -0.75100
O30         O  0.25099315  0.03311459  0.23353684    -0.74500
O31         O  0.17653059  0.84535793  0.25836090    -0.75200
O32         O  0.18692310  0.02866600  0.19978044    -0.74600
O33         O  0.24545569  0.92052981  0.25313197    -0.75100
O34         O  0.22953183  0.97817176  0.32818902    -0.75000
O35         O  0.15704959  0.96006371  0.35449554    -0.74800
C36         C  0.04146306  0.82501501  0.30608351     0.77000
C37         C  0.11771085  0.88033273  0.15260327     0.77500
C38         C  0.06939398  0.99956072  0.25879895     0.76500
C39         C  0.23301149  0.05156202  0.20795583     0.76800
C40         C  0.22356525  0.87171686  0.25548345     0.78000
C41         C  0.20187999  0.97086610  0.35915509     0.77000
C42         C  0.33690470  0.05965652  0.01565814     0.80100
N43         N  0.37850354  0.05822910  0.02665605    -0.78200
C44         C  0.40152183  0.07926521  0.06320591     0.82500
N45         N  0.38409510  0.10235264  0.08735974    -0.78200
C46         C  0.34336658  0.10416061  0.07742622     0.82600
N47         N  0.31916848  0.08165790  0.04177556    -0.79900
C48         C  0.87723576  0.61901212  0.47208920     0.80100
N49         N  0.90679477  0.65808109  0.44629712    -0.78200
C50         C  0.90738632  0.65029771  0.40524682     0.82500
N51         N  0.87773143  0.60290702  0.38958421    -0.78200
C52         C  0.84763744  0.56324233  0.41418232     0.82600
N53         N  0.84711283  0.57127722  0.45551854    -0.79900
Zn54       Zn  0.62630738  0.33193196  0.26448463     1.49700
Zn55       Zn  0.58921973  0.21040542  0.25790514     1.49400
Zn56       Zn  0.63741602  0.28431888  0.18240071     1.49100
Zn57       Zn  0.70421917  0.29312849  0.25955357     1.49500
O58         O  0.63926707  0.28041578  0.24175320    -1.84300
O59         O  0.56583282  0.29626965  0.30334826    -0.74900
O60         O  0.55357029  0.16519052  0.20774976    -0.74700
O61         O  0.64274870  0.34934707  0.16269812    -0.74200
O62         O  0.54181063  0.21406938  0.29707007    -0.74900
O63         O  0.62664855  0.38049175  0.21805880    -0.74500
O64         O  0.57845295  0.22293248  0.15797754    -0.75100
O65         O  0.73834853  0.28027225  0.21028151    -0.74500
O66         O  0.61696173  0.17724103  0.29499480    -0.75200
O67         O  0.69205261  0.27937735  0.15776867    -0.74600
O68         O  0.69347793  0.24276092  0.30457725    -0.75100
O69         O  0.74383207  0.36240568  0.28966866    -0.75000
O70         O  0.68338600  0.37803375  0.30223779    -0.74800
C71         C  0.53815862  0.24945835  0.31448035     0.77000
C72         C  0.55195914  0.17688161  0.17023372     0.77500
C73         C  0.63740178  0.38383655  0.17962647     0.76500
C74         C  0.72763937  0.27525197  0.17176530     0.76800
C75         C  0.65789679  0.19876204  0.31476039     0.78000
C76         C  0.72767193  0.38795730  0.30841654     0.77000
Zn77       Zn  0.72444448  0.89636751  0.21089307     1.49700
Zn78       Zn  0.82289452  0.00695951  0.21880552     1.49400
Zn79       Zn  0.73463212  0.95471899  0.28517215     1.49100
Zn80       Zn  0.81057476  0.91196806  0.27312557     1.49500
O81         O  0.77515292  0.94318536  0.24734687    -1.84300
O82         O  0.72664763  0.93244716  0.15998722    -0.74900
O83         O  0.83278695  0.06648050  0.25354435    -0.74700
O84         O  0.66121880  0.92696797  0.26852883    -0.74200
O85         O  0.79779743  0.00736643  0.15880950    -0.74900
O86         O  0.65403353  0.86293155  0.23148298    -0.74500
O87         O  0.77410332  0.02791481  0.30130538    -0.75100
O88         O  0.78177949  0.88785255  0.33266792    -0.74500
O89         O  0.89433514  0.02062347  0.22369836    -0.75200
O90         O  0.73027067  0.91776611  0.33663583    -0.74600
O91         O  0.88720769  0.96550868  0.27250081    -0.75100
O92         O  0.79936861  0.85099466  0.23630952    -0.75000
O93         O  0.73995076  0.84438556  0.19435369    -0.74800
C94         C  0.75665014  0.97388554  0.14189491     0.77000
C95         C  0.81339957  0.06668517  0.28774255     0.77500
C96         C  0.63377372  0.88380753  0.25082054     0.76500
C97         C  0.74964741  0.89373790  0.35246257     0.76800
C98         C  0.91418377  0.00464113  0.24975360     0.78000
C99         C  0.77032321  0.83061738  0.20529323     0.77000
C100        C  0.75990664  0.08403560  0.47930769     0.80100
N101        N  0.80291977  0.10706008  0.45719793    -0.78200
C102        C  0.80966584  0.13943513  0.42565080     0.82500
N103        N  0.77261256  0.14795359  0.41633520    -0.78200
C104        C  0.72902528  0.12418282  0.43610556     0.82600
N105        N  0.72201726  0.09150300  0.46753678    -0.79900
C106        C  0.32699373  0.18356397  0.48450592     0.80100
N107        N  0.30104301  0.19612135  0.45799576    -0.78200
C108        C  0.31790521  0.21223247  0.41945075     0.82500
N109        N  0.36070574  0.21674585  0.40725584    -0.78200
C110        C  0.38747523  0.20499960  0.43253294     0.82600
N111        N  0.37091018  0.18828430  0.47158209    -0.79900
Zn112      Zn  0.08978681  0.27256375  0.27760076     1.49700
Zn113      Zn  0.15939867  0.36285154  0.21215716     1.49400
Zn114      Zn  0.20232664  0.36349198  0.29324513     1.49100
Zn115      Zn  0.17429505  0.26832880  0.22812338     1.49500
O116        O  0.15603495  0.31564317  0.25316040    -1.84300
O117        O  0.04279376  0.27439944  0.23609353    -0.74900
O118        O  0.19147957  0.43833714  0.22903172    -0.74700
O119        O  0.16558929  0.36103761  0.34381910    -0.74200
O120        O  0.09180558  0.33305079  0.19057735    -0.74900
O121        O  0.08709176  0.29912112  0.33678030    -0.74500
O122        O  0.24203569  0.43989747  0.27712081    -0.75100
O123        O  0.22518187  0.27076036  0.26733535    -0.74500
O124        O  0.19626200  0.36063732  0.16333588    -0.75200
O125        O  0.24354547  0.33502845  0.31091280    -0.74600
O126        O  0.20179144  0.29103004  0.16799858    -0.75100
O127        O  0.11717068  0.19125147  0.23159302    -0.75000
O128        O  0.06578445  0.19427326  0.27675491    -0.74800
C129        C  0.04961922  0.29603995  0.20113503     0.77000
C130        C  0.22835741  0.46386998  0.25319061     0.77500
C131        C  0.12200143  0.33506563  0.35834807     0.76500
C132        C  0.24655110  0.29661960  0.29977248     0.76800
C133        C  0.20851480  0.33033212  0.14771749     0.78000
C134        C  0.07858387  0.16825720  0.25438699     0.77000
C135        C  0.86129225  0.18513404  0.01024002     0.80100
N136        N  0.82322253  0.19030207  0.02544774    -0.78200
C137        C  0.82619753  0.20750560  0.06482326     0.82500
N138        N  0.86627665  0.21944929  0.08792823    -0.78200
C139        C  0.90371061  0.21493903  0.07341310     0.82600
N140        N  0.90180377  0.19817130  0.03447052    -0.79900
C141        C  0.94940413  0.97317198  0.74663116     0.80100
N142        N  0.92429095  0.92082714  0.74744412    -0.78200
C143        C  0.94881580  0.89459958  0.75085080     0.82500
N144        N  0.99965752  0.92183010  0.75345631    -0.78200
C145        C  0.02573157  0.97443959  0.75281170     0.82600
N146        N  0.00013914  0.99970497  0.74936136    -0.79900
Zn147      Zn  0.27257120  0.11563275  0.79215139     1.49700
Zn148      Zn  0.17543480  0.00346213  0.78318621     1.49400
Zn149      Zn  0.18461980  0.09707436  0.72906982     1.49100
Zn150      Zn  0.26387730  0.05839035  0.71740949     1.49500
O151        O  0.22201088  0.06818698  0.75519542    -1.84300
O152        O  0.27328467  0.07758396  0.84147124    -0.74900
O153        O  0.10304028  0.98819541  0.78050176    -0.74700
O154        O  0.19765356  0.15944446  0.76499057    -0.74200
O155        O  0.20355084  0.00125766  0.84125662    -0.74900
O156        O  0.25583005  0.16720866  0.80950408    -0.74500
O157        O  0.10752350  0.04288123  0.73236599    -0.75100
O158        O  0.26730520  0.09469945  0.66627595    -0.74500
O159        O  0.16742967  0.94538474  0.74769446    -0.75200
O160        O  0.21196565  0.11987386  0.66826343    -0.74600
O161        O  0.22865950  0.98509303  0.70226692    -0.75100
O162        O  0.33744783  0.08841276  0.73304447    -0.75000
O163        O  0.34304052  0.15149375  0.77031434    -0.74800
C164        C  0.24491542  0.03437449  0.85805053     0.77000
C165        C  0.08168475  0.00371870  0.75552324     0.77500
C166        C  0.22609040  0.18080509  0.79624076     0.76500
C167        C  0.24637103  0.11661691  0.64959350     0.76800
C168        C  0.18997032  0.94535556  0.71535321     0.78000
C169        C  0.36410928  0.13156711  0.75088147     0.77000
C170        C  0.26044350  0.37671486  0.97279455     0.80100
N171        N  0.24794696  0.33635743  0.94698389    -0.78200
C172        C  0.25412246  0.34304688  0.90550788     0.82500
N173        N  0.27375214  0.39087044  0.88997520    -0.78200
C174        C  0.28660107  0.43179974  0.91447037     0.82600
N175        N  0.27977806  0.42459815  0.95598575    -0.79900
C176        C  0.10973201  0.37796451  0.53245100     0.80100
N177        N  0.13470848  0.42438630  0.55230557    -0.78200
C178        C  0.13237587  0.42688545  0.59427936     0.82500
N179        N  0.10532367  0.38281301  0.61553495    -0.78200
C180        C  0.08077452  0.33666775  0.59667499     0.82600
N181        N  0.08318258  0.33477461  0.55514602    -0.79900
Zn182      Zn  0.82527640  0.99437949  0.71301686     1.49700
Zn183      Zn  0.90501332  0.08942701  0.76742798     1.49400
Zn184      Zn  0.83681870  0.10352301  0.70110951     1.49100
Zn185      Zn  0.78654818  0.04881577  0.77594725     1.49500
O186        O  0.83962483  0.05841425  0.74000731    -1.84300
O187        O  0.88491480  0.98348474  0.71700792    -0.74900
O188        O  0.95442834  0.15093298  0.73255659    -0.74700
O189        O  0.80097310  0.06493925  0.65148881    -0.74200
O190        O  0.93134376  0.03851335  0.76642269    -0.74900
O191        O  0.79751686  0.98987374  0.65338862    -0.74500
O192        O  0.90446614  0.15246696  0.68418117    -0.75100
O193        O  0.74568222  0.08201434  0.75843142    -0.74500
O194        O  0.89821188  0.11153143  0.82692893    -0.75200
O195        O  0.80362250  0.14187491  0.71986394    -0.74600
O196        O  0.81738139  0.08331499  0.82898017    -0.75100
O197        O  0.74794139  0.97483685  0.79039611    -0.75000
O198        O  0.77822786  0.93751645  0.75025684    -0.74800
C199        C  0.92092231  0.00034244  0.74290585     0.77000
C200        C  0.94752394  0.16848731  0.69897572     0.77500
C201        C  0.78945735  0.02238979  0.63505297     0.76500
C202        C  0.76339478  0.12476376  0.73960730     0.76800
C203        C  0.86004139  0.10607634  0.84600692     0.78000
C204        C  0.75329608  0.93721309  0.78107131     0.77000
C205        C  0.14531659  0.82079681  0.98842814     0.80100
N206        N  0.18546417  0.81762576  0.97607797    -0.78200
C207        C  0.18659892  0.80192764  0.93693236     0.82500
N208        N  0.14841498  0.78948365  0.91105291    -0.78200
C209        C  0.10887276  0.79228779  0.92272880     0.82600
N210        N  0.10731893  0.80808053  0.96136314    -0.79900
Zn211      Zn  0.37512623  0.78835478  0.76221767     1.49700
Zn212      Zn  0.41223430  0.70916930  0.76627077     1.49400
Zn213      Zn  0.29600818  0.66679450  0.77468085     1.49100
Zn214      Zn  0.34807822  0.70921902  0.69074142     1.49500
O215        O  0.35745418  0.71798709  0.74930442    -1.84300
O216        O  0.43775200  0.82572624  0.79698610    -0.74900
O217        O  0.38628161  0.63900167  0.79491653    -0.74700
O218        O  0.27217425  0.70254523  0.81373577    -0.74200
O219        O  0.45008398  0.76147548  0.81099373    -0.74900
O220        O  0.32524722  0.78524546  0.80248208    -0.74500
O221        O  0.31041250  0.62205062  0.81043941    -0.75100
O222        O  0.28964026  0.64267172  0.67398484    -0.74500
O223        O  0.45843206  0.72526327  0.71588029    -0.75200
O224        O  0.24548101  0.61648004  0.73138846    -0.74600
O225        O  0.40761324  0.71706877  0.66445400    -0.75100
O226        O  0.34367549  0.76538681  0.66475062    -0.75000
O227        O  0.37902554  0.82875609  0.71001681    -0.74800
C228        C  0.45793777  0.80617788  0.81853755     0.77000
C229        C  0.34531333  0.61242432  0.81420121     0.77500
C230        C  0.28902481  0.74971161  0.82234748     0.76500
C231        C  0.25112869  0.61028408  0.69322617     0.76800
C232        C  0.44970840  0.72676280  0.67743910     0.78000
C233        C  0.36222871  0.81236809  0.67381799     0.77000
Zn234      Zn  0.79794134  0.64145786  0.71204390     1.49700
Zn235      Zn  0.90979237  0.73389228  0.72612896     1.49400
Zn236      Zn  0.82500282  0.73540269  0.77615039     1.49100
Zn237      Zn  0.84273241  0.64205038  0.79251795     1.49500
O238        O  0.84454617  0.68938334  0.75170461    -1.84300
O239        O  0.83348309  0.64310926  0.66107894    -0.74900
O240        O  0.93276738  0.81173492  0.72781445    -0.74700
O241        O  0.77567922  0.73422226  0.73529259    -0.74200
O242        O  0.91100810  0.70840962  0.66631557    -0.74900
O243        O  0.75549198  0.66788946  0.69394579    -0.74500
O244        O  0.88181191  0.81274743  0.77450024    -0.75100
O245        O  0.80490247  0.64193022  0.84244311    -0.74500
O246        O  0.95849101  0.73250422  0.76595348    -0.75200
O247        O  0.79620853  0.70970413  0.83543156    -0.74600
O248        O  0.91184123  0.67305658  0.81207969    -0.75100
O249        O  0.81157289  0.56680119  0.77421090    -0.75000
O250        O  0.75887379  0.56632266  0.72874247    -0.74800
C251        C  0.87631126  0.67101689  0.64570944     0.77000
C252        C  0.91988210  0.83675033  0.75125311     0.77500
C253        C  0.75386154  0.70759573  0.70332431     0.76500
C254        C  0.79082000  0.67145333  0.85666161     0.76800
C255        C  0.95350510  0.71016622  0.80035962     0.78000
C256        C  0.77368652  0.54194289  0.75084652     0.77000
C257        C  0.66877924  0.81453085  0.51481413     0.80100
N258        N  0.69415354  0.79988717  0.54016640    -0.78200
C259        C  0.67737713  0.78314985  0.57875570     0.82500
N260        N  0.63562639  0.78050800  0.59159442    -0.78200
C261        C  0.60975284  0.79429866  0.56730790     0.82600
N262        N  0.62590011  0.81140573  0.52839422    -0.79900
C263        C  0.67692023  0.91934816  0.97965316     0.80100
N264        N  0.69683667  0.89736883  0.95584700    -0.78200
C265        C  0.67277444  0.87017321  0.92144944     0.82500
N266        N  0.62939468  0.86616247  0.91092470    -0.78200
C267        C  0.60913048  0.88786790  0.93321748     0.82600
N268        N  0.63261951  0.91467824  0.96792814    -0.79900
C269        C  0.24786137  0.91582035  0.51698678     0.80100
N270        N  0.20889650  0.89575836  0.54372766    -0.78200
C271        C  0.21068581  0.87325384  0.57938698     0.82500
N272        N  0.25245691  0.87284851  0.58839299    -0.78200
C273        C  0.29208181  0.89409660  0.56353978     0.82600
N274        N  0.29009905  0.91554853  0.52740882    -0.79900
C275        C  0.65584469  0.23676661  0.74158309     0.80100
N276        N  0.68190540  0.28915746  0.74234576    -0.78200
C277        C  0.65811498  0.31635276  0.74221578     0.82500
N278        N  0.60754178  0.29005240  0.74184821    -0.78200
C279        C  0.58089674  0.23801925  0.74011129     0.82600
N280        N  0.60533343  0.21178623  0.73999950    -0.79900
C281        C  0.69673010  0.45882295  0.73338882    -0.20400
C282        C  0.74554811  0.48415412  0.74912148    -0.07000
C283        C  0.76575338  0.45365211  0.76155595     0.13900
C284        C  0.73657076  0.39965534  0.75859907    -0.20500
C285        C  0.68725717  0.37426125  0.74371981    -0.07000
C286        C  0.66750493  0.40500600  0.73050402     0.13900
C287        C  0.61605178  0.38221837  0.71226461    -0.23800
H288        H  0.68081320  0.48143528  0.72342592     0.15100
H289        H  0.75250073  0.37703827  0.76849508     0.15200
C290        C  0.81837567  0.47731812  0.77717254    -0.23800
H291        H  0.60852871  0.41213603  0.70099939     0.05400
H292        H  0.58774256  0.35987350  0.73590052     0.08600
H293        H  0.61180683  0.35740160  0.68564385     0.08600
H294        H  0.82286012  0.49825229  0.80633144     0.08600
H295        H  0.84448773  0.50391886  0.75376096     0.08600
H296        H  0.82861502  0.44796973  0.78359182     0.05400
C297        C  0.72798953  0.70924802  0.63165647    -0.20400
C298        C  0.73189039  0.72645110  0.67265995    -0.07000
C299        C  0.72078254  0.76510067  0.68137176     0.13900
C300        C  0.70648902  0.78523017  0.64901531    -0.20500
C301        C  0.70273579  0.76789503  0.60835893    -0.07000
C302        C  0.71347910  0.72942530  0.59946895     0.13900
C303        C  0.70788337  0.70823302  0.55657200    -0.23800
H304        H  0.73710125  0.68025367  0.62434251     0.15100
H305        H  0.69695525  0.81413335  0.65559656     0.15200
C306        C  0.72251304  0.78473841  0.72436130    -0.23800
H307        H  0.71675524  0.67725165  0.55539182     0.05400
H308        H  0.73348564  0.73910268  0.53544533     0.08600
H309        H  0.66905639  0.69216248  0.54560073     0.08600
H310        H  0.76131633  0.80609887  0.73600122     0.08600
H311        H  0.69912550  0.75224938  0.74512649     0.08600
H312        H  0.70830990  0.81154549  0.72530988     0.05400
C313        C  0.53165361  0.79377585  0.65199082    -0.20400
C314        C  0.48961049  0.74501112  0.64652466    -0.07000
C315        C  0.48311152  0.71883536  0.60883480     0.13900
C316        C  0.52064787  0.74039014  0.57899232    -0.20500
C317        C  0.56417455  0.78767008  0.58565784    -0.07000
C318        C  0.56873025  0.81552682  0.62191088     0.13900
C319        C  0.61409511  0.86749976  0.62955147    -0.23800
H320        H  0.53543853  0.81501782  0.67990025     0.15100
H321        H  0.51794590  0.71822885  0.55195091     0.15200
C322        C  0.43803279  0.66682204  0.60093647    -0.23800
H323        H  0.61138935  0.88459777  0.65888041     0.05400
H324        H  0.61816775  0.89376627  0.60410834     0.08600
H325        H  0.64794052  0.86460196  0.63126292     0.08600
H326        H  0.40409780  0.66956667  0.59981012     0.08600
H327        H  0.43448123  0.64002357  0.62574580     0.08600
H328        H  0.44052545  0.65049810  0.57111880     0.05400
C329        C  0.53121435  0.88454763  0.84728965    -0.20400
C330        C  0.49052680  0.83526180  0.85371003    -0.07000
C331        C  0.48288563  0.81329403  0.89340060     0.13900
C332        C  0.51952803  0.83810041  0.92398124    -0.20500
C333        C  0.56392886  0.88356744  0.91544520    -0.07000
C334        C  0.56830340  0.90876795  0.87765961     0.13900
C335        C  0.61457054  0.95901668  0.86799774    -0.23800
H336        H  0.53611392  0.90221787  0.81735721     0.15100
H337        H  0.51622190  0.81866000  0.95281916     0.15200
C338        C  0.43680268  0.76300233  0.90331806    -0.23800
H339        H  0.61206162  0.97372558  0.83731886     0.05400
H340        H  0.64751190  0.95443701  0.86801726     0.08600
H341        H  0.62001942  0.98793695  0.89150686     0.08600
H342        H  0.43533988  0.73166407  0.88475879     0.08600
H343        H  0.40335113  0.76559592  0.89668722     0.08600
H344        H  0.43585161  0.75282013  0.93626834     0.05400
C345        C  0.35331058  0.82759998  0.59990677    -0.20400
C346        C  0.36283636  0.84670688  0.64062321    -0.07000
C347        C  0.36776857  0.89501084  0.64806304     0.13900
C348        C  0.35503608  0.91803821  0.61650881    -0.20500
C349        C  0.33565913  0.89297663  0.57871707    -0.07000
C350        C  0.33918027  0.84996161  0.56904139     0.13900
C351        C  0.32266997  0.82450938  0.52752228    -0.23800
H352        H  0.35267275  0.79243154  0.59286325     0.15100
H353        H  0.35282129  0.95167861  0.62355627     0.15200
C354        C  0.38241323  0.92073673  0.68957705    -0.23800
H355        H  0.32762558  0.79096531  0.52487013     0.05400
H356        H  0.34493517  0.85232057  0.50313531     0.08600
H357        H  0.28279126  0.81102768  0.52227492     0.08600
H358        H  0.41953677  0.92750497  0.69858775     0.08600
H359        H  0.35449211  0.89648847  0.71290409     0.08600
H360        H  0.38466192  0.95841439  0.68932463     0.05400
C361        C  0.22290415  0.74901446  0.92171273    -0.20400
C362        C  0.22739607  0.79728873  0.91974766    -0.07000
C363        C  0.25622806  0.83135356  0.88825215     0.13900
C364        C  0.27631311  0.81495040  0.85757699    -0.20500
C365        C  0.26799260  0.76480475  0.85708657    -0.07000
C366        C  0.24302280  0.73232465  0.89102495     0.13900
C367        C  0.23689815  0.67999484  0.89530919    -0.23800
H368        H  0.19991119  0.72258053  0.94548121     0.15100
H369        H  0.29687566  0.84099925  0.83280839     0.15200
C370        C  0.26315776  0.88421056  0.88567896    -0.23800
H371        H  0.21889557  0.66149653  0.92478146     0.05400
H372        H  0.27382635  0.68323870  0.89469939     0.08600
H373        H  0.21311959  0.65458295  0.87004139     0.08600
H374        H  0.28069098  0.90558377  0.91453726     0.08600
H375        H  0.22679658  0.88164088  0.88127716     0.08600
H376        H  0.28732306  0.90643165  0.85958549     0.05400
C377        C  0.08057089  0.78846225  0.85148513    -0.20400
C378        C  0.06798732  0.77577226  0.89297801    -0.07000
C379        C  0.01825668  0.74164179  0.90365263     0.13900
C380        C  0.98262359  0.71972618  0.87233183    -0.20500
C381        C  0.99503263  0.73149817  0.83049592    -0.07000
C382        C  0.04483461  0.76735732  0.82007062     0.13900
C383        C  0.06126047  0.78340293  0.77632213    -0.23800
H384        H  0.11902528  0.81480630  0.84357918     0.15100
H385        H  0.94441896  0.69369138  0.88096639     0.15200
C386        C  0.00260836  0.72671108  0.94767778    -0.23800
H387        H  0.10205140  0.80924620  0.77429563     0.05400
H388        H  0.04412294  0.80478768  0.76375717     0.08600
H389        H  0.05087748  0.74920541  0.75702867     0.08600
H390        H  0.01023013  0.76099181  0.96572613     0.08600
H391        H  0.02317383  0.70940844  0.96138422     0.08600
H392        H  0.96229284  0.69830116  0.95009228     0.05400
C393        C  0.68908215  0.13176084  0.75725321    -0.20400
C394        C  0.73699593  0.15470419  0.74041447    -0.07000
C395        C  0.75830580  0.20565087  0.72514261     0.13900
C396        C  0.73095023  0.23079021  0.72629533    -0.20500
C397        C  0.68260300  0.20731584  0.74210987    -0.07000
C398        C  0.66177444  0.15701235  0.75838723     0.13900
C399        C  0.61135725  0.12968990  0.77824992    -0.23800
H400        H  0.67246865  0.09334592  0.76954376     0.15100
H401        H  0.74749118  0.26926742  0.71413127     0.15200
C402        C  0.81010060  0.23481370  0.70783199    -0.23800
H403        H  0.60293022  0.09267822  0.79208197     0.05400
H404        H  0.58201380  0.12097617  0.75496456     0.08600
H405        H  0.60989551  0.15376440  0.80322573     0.08600
H406        H  0.81238611  0.21541002  0.67975110     0.08600
H407        H  0.83735673  0.23770751  0.73128767     0.08600
H408        H  0.82088439  0.27444958  0.69889772     0.05400
C409        C  0.74959185  0.89052632  0.88606951    -0.20400
C410        C  0.69815389  0.85804411  0.88889703    -0.07000
C411        C  0.67121488  0.83367634  0.85233153     0.13900
C412        C  0.69149288  0.85613154  0.81430084    -0.20500
C413        C  0.73964858  0.89826127  0.81280317    -0.07000
C414        C  0.77072631  0.91174259  0.84800491     0.13900
C415        C  0.82480416  0.95307550  0.84620426    -0.23800
H416        H  0.77162892  0.90639600  0.91375479     0.15100
H417        H  0.66843480  0.84383947  0.78682157     0.15200
C418        C  0.61901130  0.78850481  0.85325772    -0.23800
H419        H  0.84361033  0.95884281  0.87649092     0.05400
H420        H  0.82859754  0.99005889  0.83690968     0.08600
H421        H  0.84411538  0.94219019  0.82349522     0.08600
H422        H  0.59284615  0.79943484  0.84028165     0.08600
H423        H  0.60752009  0.77406818  0.88505971     0.08600
H424        H  0.61681521  0.75686502  0.83454987     0.05400
C425        C  0.98608123  0.20117794  0.63192387    -0.20400
C426        C  0.98915539  0.20780446  0.67476052    -0.07000
C427        C  0.02636776  0.25433592  0.69185649     0.13900
C428        C  0.05730864  0.29452392  0.66538809    -0.20500
C429        C  0.05153261  0.28968034  0.62212037    -0.07000
C430        C  0.01640997  0.24120438  0.60527471     0.13900
C431        C  0.00834944  0.23099488  0.55963587    -0.23800
H432        H  0.95769141  0.16480134  0.61912604     0.15100
H433        H  0.08495009  0.33065606  0.67892247     0.15200
C434        C  0.03163118  0.26277714  0.73772623    -0.23800
H435        H  0.99583451  0.25584328  0.54564392     0.05400
H436        H  0.04313434  0.23784435  0.54504443     0.08600
H437        H  0.97930531  0.19073693  0.55277107     0.08600
H438        H  0.04022730  0.23511224  0.75227290     0.08600
H439        H  0.99656811  0.25742633  0.75059923     0.08600
H440        H  0.06202083  0.30200268  0.74581839     0.05400
C441        C  0.17286275  0.47127318  0.66004413    -0.20400
C442        C  0.16083881  0.47554340  0.61879729    -0.07000
C443        C  0.17440236  0.52485614  0.60397386     0.13900
C444        C  0.20171872  0.56799852  0.62970044    -0.20500
C445        C  0.21459735  0.56335997  0.67040430    -0.07000
C446        C  0.19910184  0.51408793  0.68587441     0.13900
C447        C  0.21233240  0.50647779  0.72897160    -0.23800
H448        H  0.16261775  0.43398636  0.67225681     0.15100
H449        H  0.21378156  0.60588485  0.61776267     0.15200
C450        C  0.15951365  0.53256103  0.56169302    -0.23800
H451        H  0.19852795  0.46551742  0.73563545     0.05400
H452        H  0.19540384  0.52021406  0.75163565     0.08600
H453        H  0.25329367  0.52794706  0.73314090     0.08600
H454        H  0.11861231  0.50857812  0.55782782     0.08600
H455        H  0.17818059  0.52226528  0.53811704     0.08600
H456        H  0.17036580  0.57307910  0.55640088     0.05400
C457        C  0.30311865  0.55811178  0.87514362    -0.20400
C458        C  0.33647345  0.56958312  0.84245325    -0.07000
C459        C  0.35705631  0.53807290  0.83667040     0.13900
C460        C  0.34221084  0.49530743  0.86246694    -0.20500
C461        C  0.30756975  0.48298133  0.89429413    -0.07000
C462        C  0.28848930  0.51560319  0.90092297     0.13900
C463        C  0.25140891  0.50521960  0.93408595    -0.23800
H464        H  0.28761066  0.58235152  0.88031075     0.15100
H465        H  0.35666169  0.47020223  0.85690636     0.15200
C466        C  0.39263112  0.54751415  0.80224845    -0.23800
H467        H  0.23695992  0.53178904  0.93244439     0.05400
H468        H  0.27014018  0.51130479  0.96422130     0.08600
H469        H  0.21931380  0.46552245  0.93142532     0.08600
H470        H  0.42704026  0.58524552  0.80658659     0.08600
H471        H  0.37506752  0.54671794  0.77225278     0.08600
H472        H  0.40340741  0.51794367  0.80128415     0.05400
C473        C  0.44251989  0.14763844  0.71635994    -0.20400
C474        C  0.41994108  0.15911577  0.74868293    -0.07000
C475        C  0.45138310  0.19684962  0.77800095     0.13900
C476        C  0.50333797  0.22197370  0.77378907    -0.20500
C477        C  0.52556336  0.21024936  0.74175312    -0.07000
C478        C  0.49469685  0.17261180  0.71257001     0.13900
C479        C  0.51661482  0.15996230  0.67660250    -0.23800
H480        H  0.41922586  0.11931946  0.69356306     0.15100
H481        H  0.52704249  0.25061895  0.79625469     0.15200
C482        C  0.43108097  0.21021694  0.81476575    -0.23800
H483        H  0.48736203  0.13137793  0.65572893     0.05400
H484        H  0.53923911  0.14372845  0.68771581     0.08600
H485        H  0.54039770  0.19516839  0.65855976     0.08600
H486        H  0.40677905  0.17513068  0.83276466     0.08600
H487        H  0.40995249  0.22852084  0.80459346     0.08600
H488        H  0.46110481  0.23769881  0.83568108     0.05400
C489        C  0.14265083  0.90363214  0.65369340    -0.20400
C490        C  0.16821992  0.90079398  0.68827665    -0.07000
C491        C  0.18655269  0.86728889  0.68793212     0.13900
C492        C  0.18623211  0.84415295  0.65062432    -0.20500
C493        C  0.17471150  0.86036195  0.61352100    -0.07000
C494        C  0.14517730  0.88301757  0.61592410     0.13900
C495        C  0.11966983  0.88972198  0.57913894    -0.23800
H496        H  0.12620422  0.92751661  0.65474664     0.15100
H497        H  0.20455308  0.82208611  0.64952999     0.15200
C498        C  0.21172395  0.86107329  0.72528883    -0.23800
H499        H  0.08008478  0.87500416  0.58651120     0.05400
H500        H  0.12003150  0.86773655  0.55209649     0.08600
H501        H  0.13764826  0.93094119  0.57118228     0.08600
H502        H  0.18550166  0.84651706  0.75140246     0.08600
H503        H  0.24454499  0.89850497  0.73401859     0.08600
H504        H  0.22458812  0.83371081  0.71953980     0.05400
C505        C  0.19844628  0.20996752  0.85577076    -0.20400
C506        C  0.22553893  0.22231273  0.81914346    -0.07000
C507        C  0.25991923  0.27390149  0.81025663     0.13900
C508        C  0.26742531  0.31196119  0.83868934    -0.20500
C509        C  0.24203428  0.29990414  0.87651494    -0.07000
C510        C  0.20599765  0.24795649  0.88456100     0.13900
C511        C  0.17517339  0.23182717  0.92304841    -0.23800
H512        H  0.17274306  0.17001189  0.86269368     0.15100
H513        H  0.29480862  0.35138950  0.83173685     0.15200
C514        C  0.29001312  0.28858437  0.77137322    -0.23800
H515        H  0.14689105  0.19031270  0.92269514     0.05400
H516        H  0.15531477  0.25320678  0.92584232     0.08600
H517        H  0.19923052  0.23906000  0.95041587     0.08600
H518        H  0.26472482  0.27543570  0.74424095     0.08600
H519        H  0.31306955  0.27047613  0.77074505     0.08600
H520        H  0.31519446  0.33068048  0.76896269     0.05400
C521        C  0.81894692  0.10363388  0.91221302    -0.20400
C522        C  0.86299566  0.12591070  0.88888122    -0.07000
C523        C  0.90637364  0.16777927  0.90617666     0.13900
C524        C  0.90411707  0.18654247  0.94530877    -0.20500
C525        C  0.85973865  0.16500390  0.96796819    -0.07000
C526        C  0.81674360  0.12231835  0.95125606     0.13900
C527        C  0.76882973  0.09486311  0.97489672    -0.23800
H528        H  0.78558297  0.07095857  0.89983208     0.15100
H529        H  0.93743009  0.21872261  0.95828466     0.15200
C530        C  0.95491901  0.19375227  0.88347384    -0.23800
H531        H  0.73994856  0.06043080  0.95821202     0.05400
H532        H  0.75397379  0.12065343  0.97968671     0.08600
H533        H  0.77532248  0.08208971  0.00511270     0.08600
H534        H  0.95029769  0.20853490  0.85353974     0.08600
H535        H  0.96765410  0.16622174  0.87821973     0.08600
H536        H  0.98449934  0.22661121  0.90114111     0.05400
C537        C  0.06992990  0.33128643  0.46669139    -0.20400
C538        C  0.11149510  0.37222639  0.48660778    -0.07000
C539        C  0.15465835  0.40227828  0.46309864     0.13900
C540        C  0.15533889  0.39017156  0.42138164    -0.20500
C541        C  0.11463571  0.34783362  0.40172069    -0.07000
C542        C  0.07086550  0.31849744  0.42500827     0.13900
C543        C  0.02531243  0.27290699  0.40691467    -0.23800
H544        H  0.03649013  0.30812827  0.48424065     0.15100
H545        H  0.18913926  0.41362945  0.40432317     0.15200
C546        C  0.20133592  0.44559257  0.48196411    -0.23800
H547        H  0.99467481  0.25463525  0.42952618     0.05400
H548        H  0.03423685  0.24357818  0.39708595     0.08600
H549        H  0.01159249  0.28507008  0.38019557     0.08600
H550        H  0.21327222  0.43147223  0.50860874     0.08600
H551        H  0.19457393  0.47625443  0.49196137     0.08600
H552        H  0.23244535  0.46284481  0.45974309     0.05400
C553        C  0.24133311  0.39051943  0.08844064    -0.20400
C554        C  0.22864374  0.34224379  0.10440157    -0.07000
C555        C  0.23090485  0.30696474  0.07731637     0.13900
C556        C  0.24287397  0.32004285  0.03531362    -0.20500
C557        C  0.25237871  0.36738037  0.01881154    -0.07000
C558        C  0.25213993  0.40321078  0.04669420     0.13900
C559        C  0.26018359  0.45416126  0.03310937    -0.23800
H560        H  0.24095440  0.41861038  0.10867684     0.15100
H561        H  0.24382473  0.29232155  0.01505000     0.15200
C562        C  0.21974247  0.25511065  0.09190348    -0.23800
H563        H  0.25728644  0.47642200  0.05889254     0.05400
H564        H  0.23093914  0.44750744  0.01037402     0.08600
H565        H  0.29789766  0.47782029  0.02008432     0.08600
H566        H  0.18107068  0.23291137  0.10333893     0.08600
H567        H  0.24605626  0.25966993  0.11688519     0.08600
H568        H  0.22352703  0.23259823  0.06680224     0.05400
C569        C  0.02140456  0.29836887  0.13025616    -0.20400
C570        C  0.01015034  0.27410686  0.16908355    -0.07000
C571        C  0.96566975  0.22597806  0.17343327     0.13900
C572        C  0.93401221  0.20474348  0.13942533    -0.20500
C573        C  0.94528418  0.22971506  0.10137936    -0.07000
C574        C  0.98958794  0.27664594  0.09643461     0.13900
C575        C  0.00220274  0.30481053  0.05601513    -0.23800
H576        H  0.05547209  0.33467983  0.12600856     0.15100
H577        H  0.89876231  0.16931528  0.14293000     0.15200
C578        C  0.95038011  0.19635039  0.21327229    -0.23800
H579        H  0.03847180  0.34127870  0.05746764     0.05400
H580        H  0.97321747  0.31396732  0.04758846     0.08600
H581        H  0.00432094  0.28052942  0.03157379     0.08600
H582        H  0.94767576  0.22000884  0.23795061     0.08600
H583        H  0.97751714  0.18476270  0.22207364     0.08600
H584        H  0.91352299  0.16070114  0.21064129     0.05400
C585        C  0.31687941  0.16190479  0.60151989    -0.20400
C586        C  0.26537871  0.13878969  0.60792218    -0.07000
C587        C  0.23447684  0.13100331  0.57358959     0.13900
C588        C  0.25568814  0.14543546  0.53402930    -0.20500
C589        C  0.30728215  0.16740108  0.52742519    -0.07000
C590        C  0.33818472  0.17624630  0.56219207     0.13900
C591        C  0.39376841  0.20153778  0.55869591    -0.23800
H592        H  0.34084472  0.16797673  0.62777336     0.15100
H593        H  0.23141021  0.13862813  0.50788731     0.15200
C594        C  0.17909640  0.10571108  0.57824074    -0.23800
H595        H  0.41201856  0.20770813  0.58928956     0.05400
H596        H  0.40914744  0.23952501  0.54378077     0.08600
H597        H  0.40336718  0.17694612  0.54055147     0.08600
H598        H  0.17029711  0.12916570  0.59870774     0.08600
H599        H  0.16398734  0.06696341  0.59167337     0.08600
H600        H  0.16025822  0.10150296  0.54819111     0.05400
C601        C  0.31922034  0.28563446  0.38850327    -0.20400
C602        C  0.29529982  0.23235430  0.39204292    -0.07000
C603        C  0.25864171  0.20055234  0.36345214     0.13900
C604        C  0.24566042  0.22307328  0.33206468    -0.20500
C605        C  0.26874953  0.27667050  0.32875269    -0.07000
C606        C  0.30628316  0.30844961  0.35733482     0.13900
C607        C  0.33388161  0.36611790  0.35474803    -0.23800
H608        H  0.34902634  0.30944724  0.40982094     0.15100
H609        H  0.21622849  0.19852767  0.31076316     0.15200
C610        C  0.23386951  0.14309737  0.36584119    -0.23800
H611        H  0.36524401  0.38404894  0.37710133     0.05400
H612        H  0.30884072  0.38074292  0.36201412     0.08600
H613        H  0.34937447  0.37852627  0.32343606     0.08600
H614        H  0.21506364  0.12965119  0.39594658     0.08600
H615        H  0.26203665  0.13151577  0.36273162     0.08600
H616        H  0.20566292  0.12383999  0.34107425     0.05400
C617        C  0.79250254  0.03813030  0.52115137    -0.20400
C618        C  0.75619419  0.05214647  0.51612679    -0.07000
C619        C  0.72147958  0.03990306  0.54838208     0.13900
C620        C  0.72877504  0.02158663  0.58605713    -0.20500
C621        C  0.76945152  0.01493105  0.59258621    -0.07000
C622        C  0.79966883  0.02005256  0.55892561     0.13900
C623        C  0.84218960  0.01067992  0.56382539    -0.23800
H624        H  0.81776409  0.04445897  0.49626996     0.15100
H625        H  0.70534055  0.01718256  0.61198729     0.15200
C626        C  0.67846653  0.04873825  0.54493919    -0.23800
H627        H  0.86239642  0.01657461  0.53450444     0.05400
H628        H  0.82776986  0.97061602  0.57391166     0.08600
H629        H  0.86904461  0.03732298  0.58711945     0.08600
H630        H  0.65429616  0.02652176  0.51858566     0.08600
H631        H  0.69229408  0.09014421  0.54089002     0.08600
H632        H  0.65513980  0.03606161  0.57297667     0.05400
C633        C  0.70408083  0.80757496  0.44805449    -0.20400
C634        C  0.68930926  0.83498754  0.47332226    -0.07000
C635        C  0.69811574  0.88309060  0.45984776     0.13900
C636        C  0.71982866  0.90165391  0.42120369    -0.20500
C637        C  0.73317928  0.87364892  0.39508677    -0.07000
C638        C  0.72539657  0.82597244  0.40901070     0.13900
C639        C  0.73763460  0.79347150  0.38239594    -0.23800
H640        H  0.69811473  0.77104255  0.45870163     0.15100
H641        H  0.72609437  0.93850310  0.41111027     0.15200
C642        C  0.68615214  0.91584923  0.48655588    -0.23800
H643        H  0.72762192  0.75664536  0.39749818     0.05400
H644        H  0.77807577  0.81411022  0.37616357     0.08600
H645        H  0.71674963  0.78461752  0.35287509     0.08600
H646        H  0.70600394  0.92343844  0.51650945     0.08600
H647        H  0.64559033  0.89620166  0.49193627     0.08600
H648        H  0.69750267  0.95327502  0.47194016     0.05400
C649        C  0.77313028  0.98429379  0.06681115    -0.20400
C650        C  0.74203583  0.97926342  0.09946712    -0.07000
C651        C  0.69202513  0.96406534  0.09062053     0.13900
C652        C  0.67277446  0.94757719  0.05082089    -0.20500
C653        C  0.70217288  0.94625190  0.01897817    -0.07000
C654        C  0.75401612  0.96822519  0.02662710     0.13900
C655        C  0.78964339  0.97419334  0.99320651    -0.23800
H656        H  0.81157221  0.99646123  0.07338862     0.15100
H657        H  0.63363017  0.93309422  0.04540768     0.15200
C658        C  0.65735437  0.96279896  0.12316203    -0.23800
H659        H  0.82885679  0.99735178  0.00377264     0.05400
H660        H  0.78501765  0.99398220  0.96629739     0.08600
H661        H  0.78327194  0.93619170  0.98402043     0.08600
H662        H  0.67644034  0.97890163  0.15298457     0.08600
H663        H  0.62685546  0.92273164  0.12806767     0.08600
H664        H  0.64115897  0.98605453  0.11288261     0.05400
C665        C  0.86350503  0.09820763  0.34997514    -0.20400
C666        C  0.84104232  0.10870417  0.31685449    -0.07000
C667        C  0.83435474  0.15086080  0.31916924     0.13900
C668        C  0.84179375  0.17537694  0.35736116    -0.20500
C669        C  0.84765633  0.15244003  0.39322708    -0.07000
C670        C  0.86814399  0.12097097  0.38839626     0.13900
C671        C  0.89000309  0.10691594  0.42376254    -0.23800
H672        H  0.87201785  0.06794450  0.34723527     0.15100
H673        H  0.83155341  0.20430904  0.36035220     0.15200
C674        C  0.81486633  0.16630414  0.28290894    -0.23800
H675        H  0.92799768  0.11594993  0.41567259     0.05400
H676        H  0.86674405  0.06530981  0.43019240     0.08600
H677        H  0.89316511  0.12897253  0.45196585     0.08600
H678        H  0.77773684  0.13412881  0.27365773     0.08600
H679        H  0.84073743  0.17648140  0.25667588     0.08600
H680        H  0.81119435  0.19990515  0.29019673     0.05400
C681        C  0.43819870  0.17615518  0.39724740    -0.20400
C682        C  0.43587404  0.21622062  0.41610534    -0.07000
C683        C  0.47038355  0.26706539  0.40419789     0.13900
C684        C  0.50297234  0.27635664  0.37149659    -0.20500
C685        C  0.50296523  0.23620130  0.35002018    -0.07000
C686        C  0.47145071  0.18520443  0.36480186     0.13900
C687        C  0.47089956  0.13942678  0.34627901    -0.23800
H688        H  0.41104138  0.13715591  0.40571576     0.15100
H689        H  0.52787155  0.31564783  0.36225160     0.15200
C690        C  0.47144017  0.31245190  0.42399485    -0.23800
H691        H  0.44394484  0.10320927  0.36182255     0.05400
H692        H  0.50810580  0.14367258  0.34963762     0.08600
H693        H  0.45996164  0.13543617  0.31332192     0.08600
H694        H  0.44531864  0.30132613  0.45011008     0.08600
H695        H  0.46159338  0.33272868  0.40080329     0.08600
H696        H  0.50933005  0.33919112  0.43609957     0.05400
C697        C  0.69347875  0.17728512  0.42165796    -0.20400
C698        C  0.68947261  0.12954651  0.41672927    -0.07000
C699        C  0.66657113  0.10075989  0.38065242     0.13900
C700        C  0.65328280  0.12271633  0.34858838    -0.20500
C701        C  0.66396441  0.17339807  0.35143350    -0.07000
C702        C  0.68163695  0.19992579  0.38929345     0.13900
C703        C  0.68936927  0.25272117  0.39545596    -0.23800
H704        H  0.71160703  0.19959047  0.44905706     0.15100
H705        H  0.63825334  0.10180012  0.32006182     0.15200
C706        C  0.66068603  0.04878428  0.37446907    -0.23800
H707        H  0.70063252  0.26637419  0.42758928     0.05400
H708        H  0.65428872  0.25210641  0.38871223     0.08600
H709        H  0.71910516  0.28065124  0.37498234     0.08600
H710        H  0.63782064  0.02282812  0.39961360     0.08600
H711        H  0.69758163  0.05193728  0.37465190     0.08600
H712        H  0.64213687  0.03135548  0.34469422     0.05400
C713        C  0.75429365  0.21455942  0.15258190    -0.20400
C714        C  0.75247202  0.25834686  0.14246180    -0.07000
C715        C  0.76690591  0.27941643  0.10244930     0.13900
C716        C  0.78516625  0.25758797  0.07451001    -0.20500
C717        C  0.78833805  0.21464822  0.08525323    -0.07000
C718        C  0.77119033  0.19208631  0.12443936     0.13900
C719        C  0.77210593  0.14506815  0.13804293    -0.23800
H720        H  0.74144584  0.19698569  0.18249180     0.15100
H721        H  0.80019478  0.27619500  0.04530684     0.15200
C722        C  0.76573191  0.32653997  0.08984597    -0.23800
H723        H  0.73425180  0.11489878  0.14741505     0.05400
H724        H  0.79776635  0.15477553  0.16472320     0.08600
H725        H  0.78407480  0.12874458  0.11327385     0.08600
H726        H  0.78787673  0.35809075  0.11197917     0.08600
H727        H  0.72694930  0.31832114  0.08902663     0.08600
H728        H  0.78150244  0.33982370  0.05870527     0.05400
C729        C  0.90852233  0.68168445  0.53112670    -0.20400
C730        C  0.87876170  0.63028115  0.51762678    -0.07000
C731        C  0.85216887  0.59242299  0.54798271     0.13900
C732        C  0.85485052  0.60714654  0.58949791    -0.20500
C733        C  0.88313949  0.65856546  0.60248204    -0.07000
C734        C  0.91095137  0.69621592  0.57270777     0.13900
C735        C  0.94151353  0.75209816  0.58405933    -0.23800
H736        H  0.92958790  0.71147117  0.50887685     0.15100
H737        H  0.83349240  0.57798514  0.61217166     0.15200
C738        C  0.82030967  0.53634122  0.53758814    -0.23800
H739        H  0.95977390  0.77652441  0.55681401     0.05400
H740        H  0.97110460  0.75818092  0.60628688     0.08600
H741        H  0.91738970  0.76487251  0.59797671     0.08600
H742        H  0.84319156  0.52255534  0.52285726     0.08600
H743        H  0.78945396  0.53012242  0.51682157     0.08600
H744        H  0.80333667  0.51258076  0.56539814     0.05400
C745        C  0.73656568  0.45007164  0.36327873    -0.20400
C746        C  0.75950925  0.42971204  0.33873088    -0.07000
C747        C  0.81134056  0.45007439  0.34406894     0.13900
C748        C  0.83847765  0.49150990  0.37129722    -0.20500
C749        C  0.81555417  0.51271123  0.39427327    -0.07000
C750        C  0.76382316  0.49111669  0.39070023     0.13900
C751        C  0.73767613  0.51307671  0.41417950    -0.23800
H752        H  0.69693565  0.43458816  0.36049762     0.15100
H753        H  0.87842071  0.50877630  0.37372585     0.15200
C754        C  0.83902633  0.42974788  0.32071400    -0.23800
H755        H  0.69721636  0.49232108  0.40735306     0.05400
H756        H  0.75330139  0.55390229  0.40580680     0.08600
H757        H  0.74265373  0.51022353  0.44771475     0.08600
H758        H  0.83554532  0.43394173  0.28712693     0.08600
H759        H  0.82403271  0.38886612  0.32850372     0.08600
H760        H  0.87923130  0.45076381  0.32857247     0.05400
C761        C  0.31265065  0.03811083  0.90018680    -0.20400
C762        C  0.26266084  0.02493632  0.89777245    -0.07000
C763        C  0.23530061  0.01417065  0.93441072     0.13900
C764        C  0.25982808  0.02171712  0.97254295    -0.20500
C765        C  0.31121482  0.03994945  0.97508732    -0.07000
C766        C  0.33728130  0.04558618  0.93816666     0.13900
C767        C  0.39176285  0.06300203  0.93805179    -0.23800
H768        H  0.33350905  0.04588838  0.87194077     0.15100
H769        H  0.23920717  0.01602020  0.00063429     0.15200
C770        C  0.18126578  0.99828970  0.93350932    -0.23800
H771        H  0.40608753  0.06649610  0.90632693     0.05400
H772        H  0.39798317  0.03476563  0.95458883     0.08600
H773        H  0.41346717  0.10112130  0.95299765     0.08600
H774        H  0.15976739  0.96187757  0.91610237     0.08600
H775        H  0.17664928  0.02843971  0.91847942     0.08600
H776        H  0.16561647  0.99211521  0.96497176     0.05400
C777        C  0.44144917  0.06126036  0.11911609    -0.20400
C778        C  0.44617500  0.08046989  0.07894480    -0.07000
C779        C  0.49234079  0.12184465  0.06696819     0.13900
C780        C  0.52839983  0.14984539  0.09723105    -0.20500
C781        C  0.51894204  0.13744508  0.13934811    -0.07000
C782        C  0.47639029  0.09012592  0.14999917     0.13900
C783        C  0.46492430  0.07175658  0.19385828    -0.23800
H784        H  0.40614339  0.02848822  0.12799917     0.15100
H785        H  0.56241970  0.18403262  0.08814846     0.15200
C786        C  0.50114898  0.13980224  0.02299164    -0.23800
H787        H  0.42982421  0.03423993  0.19615073     0.05400
H788        H  0.46068352  0.09965863  0.21277580     0.08600
H789        H  0.49519054  0.06687871  0.20662056     0.08600
H790        H  0.47467503  0.15206281  0.01366254     0.08600
H791        H  0.49589482  0.10806953  0.00263869     0.08600
H792        H  0.53939348  0.17268960  0.01855910     0.05400
C793        C  0.11717701  0.86586769  0.03506468    -0.20400
C794        C  0.14138688  0.83782154  0.03068427    -0.07000
C795        C  0.15697039  0.82352766  0.06663153     0.13900
C796        C  0.14735843  0.83693921  0.10549831    -0.20500
C797        C  0.12318442  0.86508478  0.10996818    -0.07000
C798        C  0.10836550  0.88012566  0.07389637     0.13900
C799        C  0.08233142  0.91022661  0.07575254    -0.23800
H800        H  0.10511537  0.87699996  0.00767716     0.15100
H801        H  0.15976639  0.82596372  0.13275409     0.15200
C802        C  0.18247100  0.79291396  0.06457627    -0.23800
H803        H  0.07068729  0.91569799  0.04473101     0.05400
H804        H  0.10763168  0.94882997  0.08882592     0.08600
H805        H  0.04853966  0.88962691  0.09493499     0.08600
H806        H  0.21866371  0.81541237  0.04880854     0.08600
H807        H  0.15865941  0.75653382  0.04768565     0.08600
H808        H  0.18999556  0.78316237  0.09569835     0.05400
C809        C  0.25472808  0.95074577  0.40312635    -0.20400
C810        C  0.22046116  0.96762544  0.40088761    -0.07000
C811        C  0.20039770  0.97341449  0.43799907     0.13900
C812        C  0.21230884  0.95874393  0.47546663    -0.20500
C813        C  0.24348115  0.93800493  0.47720699    -0.07000
C814        C  0.26619090  0.93550553  0.44043816     0.13900
C815        C  0.30016194  0.91397478  0.43939411    -0.23800
H816        H  0.27045507  0.94623324  0.37498152     0.15100
H817        H  0.19585898  0.96215357  0.50360080     0.15200
C818        C  0.16651742  0.99500708  0.43865102    -0.23800
H819        H  0.31225704  0.91252061  0.40763894     0.05400
H820        H  0.28065450  0.87431701  0.45162499     0.08600
H821        H  0.33412942  0.93848142  0.45790134     0.08600
H822        H  0.13060956  0.96826299  0.42344319     0.08600
H823        H  0.18453622  0.03259501  0.42277855     0.08600
H824        H  0.15813348  0.00105298  0.47058709     0.05400
C825        C  0.99557339  0.73162839  0.32034985    -0.20400
C826        C  0.00215462  0.78011777  0.32907219    -0.07000
C827        C  0.97486053  0.78452996  0.36195648     0.13900
C828        C  0.94388392  0.74121373  0.38567669    -0.20500
C829        C  0.93899095  0.69354186  0.37768497    -0.07000
C830        C  0.96470687  0.68850681  0.34415539     0.13900
C831        C  0.96201298  0.63861061  0.33430986    -0.23800
H832        H  0.01607390  0.72746403  0.29547554     0.15100
H833        H  0.92346260  0.74466682  0.41101498     0.15200
C834        C  0.97788790  0.83427292  0.37294691    -0.23800
H835        H  0.98762814  0.64293508  0.30911631     0.05400
H836        H  0.92394518  0.60963594  0.32406674     0.08600
H837        H  0.97247909  0.62450453  0.36188053     0.08600
H838        H  0.96844061  0.84970681  0.34563780     0.08600
H839        H  0.01567935  0.86238880  0.38441015     0.08600
H840        H  0.95153119  0.82921132  0.39772330     0.05400
C841        C  0.34568005  0.13332259  0.14885700    -0.20400
C842        C  0.32191964  0.12130297  0.10992825    -0.07000
C843        C  0.27310996  0.11218527  0.10751440     0.13900
C844        C  0.24535937  0.09936710  0.14368089    -0.20500
C845        C  0.26584674  0.09539330  0.18132689    -0.07000
C846        C  0.31784317  0.12020736  0.18493275     0.13900
C847        C  0.34422256  0.12955522  0.22571989    -0.23800
H848        H  0.38495055  0.14663290  0.15148501     0.15100
H849        H  0.20601653  0.08573889  0.14113521     0.15200
C850        C  0.24833234  0.11227331  0.06769292    -0.23800
H851        H  0.37342782  0.17061495  0.22828980     0.05400
H852        H  0.36192408  0.10597054  0.22799388     0.08600
H853        H  0.31870002  0.12072994  0.25199439     0.08600
H854        H  0.21881997  0.07263295  0.05963733     0.08600
H855        H  0.27505255  0.12910547  0.04206494     0.08600
H856        H  0.23125641  0.13628974  0.07124770     0.05400
C857        C  0.76444727  0.68753852  0.96920955    -0.20400
C858        C  0.74264090  0.63709825  0.98484881    -0.07000
C859        C  0.73207420  0.59752276  0.95608453     0.13900
C860        C  0.74599035  0.60992369  0.91437444    -0.20500
C861        C  0.76983444  0.66069585  0.89957750    -0.07000
C862        C  0.77805614  0.69981634  0.92762340     0.13900
C863        C  0.80334704  0.75514800  0.91463904    -0.23800
H864        H  0.77225991  0.71859809  0.98985076     0.15100
H865        H  0.73902078  0.57946164  0.89311318     0.15200
C866        C  0.70691862  0.54211385  0.96862098    -0.23800
H867        H  0.80817663  0.78087570  0.94075564     0.05400
H868        H  0.78067396  0.76011455  0.89075831     0.08600
H869        H  0.84074593  0.76741142  0.90231903     0.08600
H870        H  0.66990456  0.52993269  0.98174727     0.08600
H871        H  0.73021773  0.53663824  0.99152220     0.08600
H872        H  0.70106821  0.51662816  0.94205304     0.05400
C873        C  0.64941349  0.47191071  0.17500098    -0.20400
C874        C  0.64727901  0.43016877  0.15462367    -0.07000
C875        C  0.65843586  0.43565765  0.11170527     0.13900
C876        C  0.67487683  0.48316093  0.09200732    -0.20500
C877        C  0.68068967  0.52614957  0.11324809    -0.07000
C878        C  0.66542853  0.51920938  0.15532319     0.13900
C879        C  0.66546649  0.56082420  0.18064902    -0.23800
H880        H  0.63996305  0.46818438  0.20732130     0.15100
H881        H  0.68479182  0.48703295  0.05980276     0.15200
C882        C  0.65370433  0.39218212  0.08581682    -0.23800
H883        H  0.64784393  0.54663374  0.21110306     0.05400
H884        H  0.64420524  0.57578835  0.16444816     0.08600
H885        H  0.70409275  0.59196687  0.18682076     0.08600
H886        H  0.61553764  0.35854027  0.08827209     0.08600
H887        H  0.68139320  0.38187509  0.09582843     0.08600
H888        H  0.66059841  0.40256394  0.05275072     0.05400
C889        C  0.76526031  0.79596061  0.13611613    -0.20400
C890        C  0.77206155  0.79216411  0.17844701    -0.07000
C891        C  0.77490603  0.75006711  0.19305563     0.13900
C892        C  0.76789825  0.71142684  0.16512953    -0.20500
C893        C  0.75765963  0.71353361  0.12298885    -0.07000
C894        C  0.75776672  0.75752621  0.10830183     0.13900
C895        C  0.74820347  0.76421599  0.06388148    -0.23800
H896        H  0.76423821  0.82898726  0.12475864     0.15100
H897        H  0.76925341  0.67870342  0.17657854     0.15200
C898        C  0.78282848  0.74446766  0.23803747    -0.23800
H899        H  0.74682315  0.79963473  0.05889554     0.05400
H900        H  0.71202190  0.73145677  0.05347544     0.08600
H901        H  0.77891160  0.76760675  0.04486931     0.08600
H902        H  0.75281370  0.74397547  0.25634065     0.08600
H903        H  0.81927633  0.77694397  0.24825722     0.08600
H904        H  0.78261052  0.70842020  0.24430289     0.05400
C905        C  0.27587743  0.60595471  0.22678242    -0.20400
C906        C  0.30935922  0.63170567  0.25917210    -0.07000
C907        C  0.31570801  0.60223113  0.28966116     0.13900
C908        C  0.28886691  0.54819058  0.28684371    -0.20500
C909        C  0.25551917  0.52190031  0.25411944    -0.07000
C910        C  0.24941047  0.55193514  0.22348581     0.13900
C911        C  0.21612608  0.52804766  0.18647085    -0.23800
H912        H  0.27117224  0.62850108  0.20328095     0.15100
H913        H  0.29395550  0.52634184  0.31071419     0.15200
C914        C  0.34966229  0.62762121  0.32602864    -0.23800
H915        H  0.21772053  0.55738208  0.16508473     0.05400
H916        H  0.17697640  0.50388374  0.19633228     0.08600
H917        H  0.22788669  0.50464389  0.16909524     0.08600
H918        H  0.33797570  0.65149014  0.34278592     0.08600
H919        H  0.38847336  0.65213436  0.31553052     0.08600
H920        H  0.34884095  0.59911354  0.34792154     0.05400
C921        C  0.49769540  0.84959706  0.26440015    -0.20400
C922        C  0.47114158  0.79659081  0.25566844    -0.07000
C923        C  0.49908557  0.77347869  0.24453231     0.13900
C924        C  0.55133157  0.80321074  0.24347828    -0.20500
C925        C  0.57784083  0.85589464  0.25282316    -0.07000
C926        C  0.55013523  0.87939735  0.26297650     0.08300
C927        C  0.57510492  0.93602548  0.27142895    -0.23800
H928        H  0.47734109  0.86818131  0.27269704     0.15100
H929        H  0.57179265  0.78461135  0.23537896     0.15200
C930        C  0.47494622  0.71773429  0.23268286    -0.23800
H931        H  0.54772365  0.94823457  0.27687208     0.05400
H932        H  0.59798326  0.95781744  0.24462803     0.08600
H933        H  0.59885841  0.94596139  0.29935989     0.08600
H934        H  0.44870030  0.70914427  0.20663310     0.08600
H935        H  0.45529403  0.69314976  0.25945519     0.08600
H936        H  0.50255655  0.70746120  0.22264757     0.05400
C937        C  0.26149186  0.77006674  0.24391207    -0.20400
C938        C  0.31143136  0.79665768  0.25698500    -0.07000
C939        C  0.33236882  0.84881515  0.26905384     0.13900
C940        C  0.30302518  0.87194183  0.26787340    -0.20500
C941        C  0.25297130  0.84499704  0.25521610    -0.07000
C942        C  0.23224397  0.79310931  0.24272469     0.13900
C943        C  0.17956945  0.76146900  0.22698061    -0.23800
H944        H  0.24491639  0.73055370  0.23414032     0.15100
H945        H  0.31931154  0.91148964  0.27749729     0.15200
C946        C  0.38522665  0.88067948  0.28408691    -0.23800
H947        H  0.17095600  0.72316535  0.21601154     0.05400
H948        H  0.17368463  0.78119375  0.20068935     0.08600
H949        H  0.15305640  0.75504194  0.25195388     0.08600
H950        H  0.41104621  0.88631903  0.25875275     0.08600
H951        H  0.39159198  0.86162785  0.31061166     0.08600
H952        H  0.39410907  0.91929377  0.29444303     0.05400
loop_ 
_geom_bond_atom_site_label_1 
_geom_bond_atom_site_label_2 
_geom_bond_distance 
_geom_bond_site_symmetry_2 
_ccdc_geom_bond_type 
C1            N2   1.370       .  A
C1            N6   1.364   1_455  A
C1           C38   1.494   1_545  S
N2            C3   1.369       .  A
C3            N4   1.371   1_455  A
C3          C134   1.513       .  S
N4            C5   1.373       .  A
C5            N6   1.364       .  A
C5           C98   1.501       .  S
C7            N8   1.365       .  A
C7           N12   1.368       .  A
C7          C938   1.514       .  S
N8            C9   1.366       .  A
C9           N10   1.364       .  A
C9          C922   1.514       .  S
N10          C11   1.361       .  A
C11          N12   1.363       .  A
C11         C906   1.500       .  S
C13          N14   1.375       .  A
C13          N18   1.362       .  A
C13         C858   1.524   1_554  S
N14          C15   1.376       .  A
C15          N16   1.356       .  A
C15         C877   1.517       .  S
N16          C17   1.353       .  A
C17          N18   1.357       .  A
C17         C893   1.495       .  S
Zn19         O23   1.941       .  S
Zn19         O24   2.018       .  S
Zn19         O28   2.095       .  S
Zn19         O35   2.039       .  S
Zn20         O23   1.933       .  S
Zn20         O25   2.020       .  S
Zn20         O27   2.008       .  S
Zn20         O31   2.023       .  S
Zn21         O23   1.938       .  S
Zn21         O26   2.054       .  S
Zn21         O29   2.051       .  S
Zn21         O32   1.955   1_565  S
Zn22         O23   1.956       .  S
Zn22         O30   2.039   1_565  S
Zn22         O33   2.075       .  S
Zn22         O34   2.020       .  S
O24          C36   1.275       .  A
O25          C37   1.275       .  A
O26          C38   1.278       .  A
O27          C36   1.277       .  A
O28          C38   1.283       .  A
O29          C37   1.278       .  A
O30          C39   1.280       .  A
O31          C40   1.272       .  A
O32          C39   1.268       .  A
O33          C40   1.280       .  A
O34          C41   1.276       .  A
O35          C41   1.277       .  A
C36         C826   1.493       .  S
C37         C797   1.500       .  S
C39         C845   1.480       .  S
C40         C941   1.508       .  S
C41         C810   1.495       .  S
C42          N43   1.372       .  A
C42          N47   1.366       .  A
C42         C765   1.497   1_554  S
N43          C44   1.363       .  A
C44          N45   1.344       .  A
C44         C778   1.470       .  S
N45          C46   1.343       .  A
C46          N47   1.358       .  A
C46         C842   1.487       .  S
C48          N49   1.362       .  A
C48          N53   1.371       .  A
C48         C730   1.515       .  S
N49          C50   1.357       .  A
C50          N51   1.351       .  A
C50         C829   1.480       .  S
N51          C52   1.352       .  A
C52          N53   1.368       .  A
C52         C749   1.484       .  S
Zn54         O58   1.955       .  S
Zn54         O59   2.072       .  S
Zn54         O63   2.106       .  S
Zn54         O70   2.020       .  S
Zn55         O58   1.964       .  S
Zn55         O60   2.051       .  S
Zn55         O62   2.010       .  S
Zn55         O66   2.026       .  S
Zn56         O58   1.935       .  S
Zn56         O61   2.001       .  S
Zn56         O64   1.996       .  S
Zn56         O67   1.970       .  S
Zn57         O58   1.952       .  S
Zn57         O65   2.078       .  S
Zn57         O68   2.018       .  S
Zn57         O69   2.061       .  S
O59          C71   1.284       .  A
O60          C72   1.278       .  A
O61          C73   1.270       .  A
O62          C71   1.272       .  A
O63          C73   1.287       .  A
O64          C72   1.274       .  A
O65          C74   1.283       .  A
O66          C75   1.272       .  A
O67          C74   1.266       .  A
O68          C75   1.273       .  A
O69          C76   1.280       .  A
O70          C76   1.275       .  A
C71         C685   1.509       .  S
C72         C781   1.495       .  S
C73         C874   1.515       .  S
C74         C714   1.483       .  S
C75         C701   1.482       .  S
C76         C746   1.507       .  S
Zn77         O81   1.903       .  S
Zn77         O82   1.966       .  S
Zn77         O86   2.019       .  S
Zn77         O93   1.953       .  S
Zn78         O81   1.976   1_545  S
Zn78         O83   2.018       .  S
Zn78         O85   2.100       .  S
Zn78         O89   2.063       .  S
Zn79         O81   1.931       .  S
Zn79         O84   2.073       .  S
Zn79         O87   1.983   1_565  S
Zn79         O90   1.980       .  S
Zn80         O81   1.974       .  S
Zn80         O88   2.108       .  S
Zn80         O91   2.103       .  S
Zn80         O92   2.080       .  S
O82          C94   1.269       .  A
O83          C95   1.272       .  A
O84          C96   1.278       .  A
O85          C94   1.285   1_545  A
O86          C96   1.273       .  A
O87          C95   1.274       .  A
O88          C97   1.286       .  A
O89          C98   1.281       .  A
O90          C97   1.271       .  A
O91          C98   1.286   1_565  A
O92          C99   1.281       .  A
O93          C99   1.269       .  A
C94         C650   1.485       .  S
C95         C666   1.462       .  S
C96         C925   1.509       .  S
C97         C637   1.498       .  S
C99         C890   1.483       .  S
C100        N101   1.368       .  A
C100        N105   1.370       .  A
C100        C618   1.506       .  S
N101        C102   1.361       .  A
C102        N103   1.345       .  A
C102        C669   1.490       .  S
N103        C104   1.343       .  A
C104        N105   1.362       .  A
C104        C698   1.468       .  S
C106        N107   1.363       .  A
C106        N111   1.378       .  A
C106        C589   1.506       .  S
N107        C108   1.354       .  A
C108        N109   1.340       .  A
C108        C602   1.450       .  S
N109        C110   1.343       .  A
C110        N111   1.370       .  A
C110        C682   1.478       .  S
Zn112       O116   1.974       .  S
Zn112       O117   2.012       .  S
Zn112       O121   2.106       .  S
Zn112       O128   2.097       .  S
Zn113       O116   1.921       .  S
Zn113       O118   2.052       .  S
Zn113       O120   1.954       .  S
Zn113       O124   1.991       .  S
Zn114       O116   1.933       .  S
Zn114       O119   1.993       .  S
Zn114       O122   2.066       .  S
Zn114       O125   1.970       .  S
Zn115       O116   1.977       .  S
Zn115       O123   2.006       .  S
Zn115       O126   2.110       .  S
Zn115       O127   2.102       .  S
O117        C129   1.276       .  A
O118        C130   1.275       .  A
O119        C131   1.272       .  A
O120        C129   1.271       .  A
O121        C131   1.285       .  A
O122        C130   1.278       .  A
O123        C132   1.277       .  A
O124        C133   1.273       .  A
O125        C132   1.272       .  A
O126        C133   1.284       .  A
O127        C134   1.283       .  A
O128        C134   1.283       .  A
C129        C570   1.483       .  S
C130        C909   1.517       .  S
C131        C541   1.513       .  S
C132        C605   1.470       .  S
C133        C554   1.513       .  S
C135        N136   1.376       .  A
C135        N140   1.364       .  A
C135        C525   1.495   1_554  S
N136        C137   1.368       .  A
C137        N138   1.340       .  A
C137        C717   1.474       .  S
N138        C139   1.338       .  A
C139        N140   1.355       .  A
C139        C573   1.453       .  S
C141        N142   1.368       .  A
C141        N146   1.369   1_655  A
C141        C199   1.499   1_565  S
N142        C143   1.365       .  A
C143        N144   1.372       .  A
C143        C252   1.511       .  S
N144        C145   1.374   1_655  A
C145        N146   1.369       .  A
C145        C165   1.509   1_565  S
Zn147       O151   1.917       .  S
Zn147       O152   1.982       .  S
Zn147       O156   1.975       .  S
Zn147       O163   2.032       .  S
Zn148       O151   1.976       .  S
Zn148       O153   2.072   1_545  S
Zn148       O155   2.093       .  S
Zn148       O159   2.015   1_545  S
Zn149       O151   1.975       .  S
Zn149       O154   2.081       .  S
Zn149       O157   2.121       .  S
Zn149       O160   2.129       .  S
Zn150       O151   1.935       .  S
Zn150       O158   1.967       .  S
Zn150       O161   1.976   1_545  S
Zn150       O162   2.059       .  S
O152        C164   1.271       .  A
O153        C165   1.282   1_565  A
O154        C166   1.282       .  A
O155        C164   1.284       .  A
O156        C166   1.270       .  A
O157        C165   1.288       .  A
O158        C167   1.269       .  A
O159        C168   1.271       .  A
O160        C167   1.288       .  A
O161        C168   1.272       .  A
O162        C169   1.276       .  A
O163        C169   1.272       .  A
C164        C762   1.487       .  S
C166        C506   1.474       .  S
C167        C586   1.497       .  S
C168        C490   1.457       .  S
C169        C474   1.507       .  S
C170        N171   1.367       .  A
C170        N175   1.373       .  A
C170        C557   1.521   1_556  S
N171        C172   1.363       .  A
C172        N173   1.354       .  A
C172        C509   1.497       .  S
N173        C174   1.353       .  A
C174        N175   1.368       .  A
C174        C461   1.497       .  S
C176        N177   1.373       .  A
C176        N181   1.360       .  A
C176        C538   1.505       .  S
N177        C178   1.371       .  A
C178        N179   1.355       .  A
C178        C442   1.504       .  S
N179        C180   1.352       .  A
C180        N181   1.355       .  A
C180        C429   1.494       .  S
Zn182       O186   1.966   1_565  S
Zn182       O187   2.062       .  S
Zn182       O191   2.095       .  S
Zn182       O198   2.010       .  S
Zn183       O186   1.971       .  S
Zn183       O188   2.058       .  S
Zn183       O190   2.094       .  S
Zn183       O194   2.096       .  S
Zn184       O186   1.898       .  S
Zn184       O189   1.967       .  S
Zn184       O192   1.949       .  S
Zn184       O195   2.016       .  S
Zn185       O186   1.936       .  S
Zn185       O193   2.072       .  S
Zn185       O196   1.987       .  S
Zn185       O197   1.991   1_545  S
O187        C199   1.281   1_565  A
O188        C200   1.279       .  A
O189        C201   1.269       .  A
O190        C199   1.284       .  A
O191        C201   1.284   1_565  A
O192        C200   1.269       .  A
O193        C202   1.279       .  A
O194        C203   1.285       .  A
O195        C202   1.270       .  A
O196        C203   1.272       .  A
O197        C204   1.275       .  A
O198        C204   1.272       .  A
C200        C426   1.472       .  S
C201        C621   1.481       .  S
C202        C394   1.511       .  S
C203        C522   1.503       .  S
C204        C413   1.461       .  S
C205        N206   1.373       .  A
C205        N210   1.363       .  A
C205        C794   1.496   1_556  S
N206        C207   1.367       .  A
C207        N208   1.344       .  A
C207        C362   1.471       .  S
N208        C209   1.343       .  A
C209        N210   1.355       .  A
C209        C378   1.468       .  S
Zn211       O215   1.961       .  S
Zn211       O216   2.028       .  S
Zn211       O220   2.011       .  S
Zn211       O227   2.061       .  S
Zn212       O215   1.945       .  S
Zn212       O217   2.076       .  S
Zn212       O219   2.025       .  S
Zn212       O223   2.080       .  S
Zn213       O215   1.940       .  S
Zn213       O218   2.049       .  S
Zn213       O221   2.005       .  S
Zn213       O224   2.079       .  S
Zn214       O215   1.922       .  S
Zn214       O222   1.986       .  S
Zn214       O225   1.959       .  S
Zn214       O226   1.971       .  S
O216        C228   1.273       .  A
O217        C229   1.282       .  A
O218        C230   1.280       .  A
O219        C228   1.275       .  A
O220        C230   1.276       .  A
O221        C229   1.274       .  A
O222        C231   1.269       .  A
O223        C232   1.283       .  A
O224        C231   1.282       .  A
O225        C232   1.265       .  A
O226        C233   1.270       .  A
O227        C233   1.278       .  A
C228        C330   1.481       .  S
C229        C458   1.499       .  S
C230        C365   1.497       .  S
C231        C445   1.489       .  S
C232        C314   1.479       .  S
C233        C346   1.494       .  S
Zn234       O238   1.929       .  S
Zn234       O239   1.989       .  S
Zn234       O243   1.960       .  S
Zn234       O250   2.038       .  S
Zn235       O238   1.974       .  S
Zn235       O240   2.092       .  S
Zn235       O242   2.102       .  S
Zn235       O246   2.011       .  S
Zn236       O238   1.962       .  S
Zn236       O241   2.017       .  S
Zn236       O244   2.102       .  S
Zn236       O247   2.107       .  S
Zn237       O238   1.935       .  S
Zn237       O245   2.016       .  S
Zn237       O248   1.970       .  S
Zn237       O249   2.062       .  S
O239        C251   1.271       .  A
O240        C252   1.281       .  A
O241        C253   1.276       .  A
O242        C251   1.285       .  A
O243        C253   1.271       .  A
O244        C252   1.284       .  A
O245        C254   1.274       .  A
O246        C255   1.276       .  A
O247        C254   1.287       .  A
O248        C255   1.274       .  A
O249        C256   1.276       .  A
O250        C256   1.275       .  A
C251        C733   1.501       .  S
C253        C298   1.479       .  S
C254        C861   1.509       .  S
C255        C381   1.481       .  S
C256        C282   1.510       .  S
C257        N258   1.364       .  A
C257        N262   1.374       .  A
C257        C634   1.490       .  S
N258        C259   1.357       .  A
C259        N260   1.339       .  A
C259        C301   1.462       .  S
N260        C261   1.340       .  A
C261        N262   1.366       .  A
C261        C317   1.468       .  S
C263        N264   1.367       .  A
C263        N268   1.373       .  A
C263        C653   1.502   1_556  S
N264        C265   1.362       .  A
C265        N266   1.343       .  A
C265        C410   1.484       .  S
N266        C267   1.342       .  A
C267        N268   1.362       .  A
C267        C333   1.469       .  S
C269        N270   1.368       .  A
C269        N274   1.368       .  A
C269        C813   1.495       .  S
N270        C271   1.360       .  A
C271        N272   1.346       .  A
C271        C493   1.490       .  S
N272        C273   1.343       .  A
C273        N274   1.359       .  A
C273        C349   1.466       .  S
C275        N276   1.369       .  A
C275        N280   1.362       .  A
C275        C397   1.508       .  S
N276        C277   1.368       .  A
C277        N278   1.362       .  A
C277        C285   1.513       .  S
N278        C279   1.360       .  A
C279        N280   1.359       .  A
C279        C477   1.492       .  S
C281        C282   1.407       .  A
C281        C286   1.411       .  A
C281        H288   1.084       .  S
C282        C283   1.421       .  A
C283        C284   1.415       .  A
C283        C290   1.507       .  S
C284        C285   1.410       .  A
C284        H289   1.083       .  S
C285        C286   1.424       .  A
C286        C287   1.509       .  S
C287        H291   1.111       .  S
C287        H292   1.109       .  S
C287        H293   1.110       .  S
C290        H294   1.110       .  S
C290        H295   1.110       .  S
C290        H296   1.111       .  S
C297        C298   1.414       .  A
C297        C302   1.398       .  A
C297        H304   1.083       .  S
C298        C299   1.415       .  A
C299        C300   1.398       .  A
C299        C306   1.510       .  S
C300        C301   1.405       .  A
C300        H305   1.085       .  S
C301        C302   1.403       .  A
C302        C303   1.508       .  S
C303        H307   1.111       .  S
C303        H308   1.110       .  S
C303        H309   1.111       .  S
C306        H310   1.109       .  S
C306        H311   1.110       .  S
C306        H312   1.111       .  S
C313        C314   1.402       .  A
C313        C318   1.404       .  A
C313        H320   1.084       .  S
C314        C315   1.417       .  A
C315        C316   1.407       .  A
C315        C322   1.508       .  S
C316        C317   1.402       .  A
C316        H321   1.084       .  S
C317        C318   1.415       .  A
C318        C319   1.509       .  S
C319        H323   1.111       .  S
C319        H324   1.110       .  S
C319        H325   1.110       .  S
C322        H326   1.109       .  S
C322        H327   1.110       .  S
C322        H328   1.111       .  S
C329        C330   1.401       .  A
C329        C334   1.406       .  A
C329        H336   1.084       .  S
C330        C331   1.416       .  A
C331        C332   1.406       .  A
C331        C338   1.508       .  S
C332        C333   1.400       .  A
C332        H337   1.084       .  S
C333        C334   1.416       .  A
C334        C335   1.508       .  S
C335        H339   1.111       .  S
C335        H340   1.110       .  S
C335        H341   1.110       .  S
C338        H342   1.109       .  S
C338        H343   1.111       .  S
C338        H344   1.111       .  S
C345        C346   1.413       .  A
C345        C350   1.402       .  A
C345        H352   1.084       .  S
C346        C347   1.417       .  A
C347        C348   1.407       .  A
C347        C354   1.507       .  S
C348        C349   1.406       .  A
C348        H353   1.085       .  S
C349        C350   1.404       .  A
C350        C351   1.507       .  S
C351        H355   1.111       .  S
C351        H356   1.110       .  S
C351        H357   1.110       .  S
C354        H358   1.110       .  S
C354        H359   1.110       .  S
C354        H360   1.111       .  S
C361        C362   1.402       .  A
C361        C366   1.410       .  A
C361        H368   1.084       .  S
C362        C363   1.411       .  A
C363        C364   1.404       .  A
C363        C370   1.509       .  S
C364        C365   1.409       .  A
C364        H369   1.084       .  S
C365        C366   1.422       .  A
C366        C367   1.508       .  S
C367        H371   1.111       .  S
C367        H372   1.111       .  S
C367        H373   1.109       .  S
C370        H374   1.110       .  S
C370        H375   1.110       .  S
C370        H376   1.111       .  S
C377        C378   1.405       .  A
C377        C382   1.400       .  A
C377        H384   1.085       .  S
C378        C379   1.407       .  A
C379        C380   1.397   1_455  A
C379        C386   1.508       .  S
C380        C381   1.412       .  A
C380        H385   1.084       .  S
C381        C382   1.416   1_655  A
C382        C383   1.509       .  S
C383        H387   1.109       .  S
C383        H388   1.110       .  S
C383        H389   1.110       .  S
C386        H390   1.110       .  S
C386        H391   1.110       .  S
C386        H392   1.111   1_455  S
C393        C394   1.408       .  A
C393        C398   1.413       .  A
C393        H400   1.083       .  S
C394        C395   1.427       .  A
C395        C396   1.411       .  A
C395        C402   1.509       .  S
C396        C397   1.405       .  A
C396        H401   1.084       .  S
C397        C398   1.423       .  A
C398        C399   1.508       .  S
C399        H403   1.111       .  S
C399        H404   1.109       .  S
C399        H405   1.110       .  S
C402        H406   1.110       .  S
C402        H407   1.110       .  S
C402        H408   1.111       .  S
C409        C410   1.399       .  A
C409        C414   1.399       .  A
C409        H416   1.082       .  S
C410        C411   1.422       .  A
C411        C412   1.401       .  A
C411        C418   1.505       .  S
C412        C413   1.394       .  A
C412        H417   1.084       .  S
C413        C414   1.415       .  A
C414        C415   1.509       .  S
C415        H419   1.111       .  S
C415        H420   1.110       .  S
C415        H421   1.110       .  S
C418        H422   1.111       .  S
C418        H423   1.111       .  S
C418        H424   1.110       .  S
C425        C426   1.403       .  A
C425        C430   1.400   1_655  A
C425        H432   1.085       .  S
C426        C427   1.405   1_655  A
C427        C428   1.404       .  A
C427        C434   1.507       .  S
C428        C429   1.415       .  A
C428        H433   1.083       .  S
C429        C430   1.420       .  A
C430        C431   1.509       .  S
C431        H435   1.109   1_455  S
C431        H436   1.110       .  S
C431        H437   1.111   1_455  S
C434        H438   1.110       .  S
C434        H439   1.110   1_455  S
C434        H440   1.111       .  S
C441        C442   1.414       .  A
C441        C446   1.405       .  A
C441        H448   1.083       .  S
C442        C443   1.417       .  A
C443        C444   1.413       .  A
C443        C450   1.504       .  S
C444        C445   1.408       .  A
C444        H449   1.084       .  S
C445        C446   1.410       .  A
C446        C447   1.509       .  S
C447        H451   1.111       .  S
C447        H452   1.110       .  S
C447        H453   1.111       .  S
C450        H454   1.110       .  S
C450        H455   1.105       .  S
C450        H456   1.111       .  S
C457        C458   1.409       .  A
C457        C462   1.407       .  A
C457        H464   1.084       .  S
C458        C459   1.415       .  A
C459        C460   1.412       .  A
C459        C466   1.506       .  S
C460        C461   1.410       .  A
C460        H465   1.084       .  S
C461        C462   1.413       .  A
C462        C463   1.501       .  S
C463        H467   1.111       .  S
C463        H468   1.104       .  S
C463        H469   1.110       .  S
C466        H470   1.110       .  S
C466        H471   1.110       .  S
C466        H472   1.111       .  S
C473        C474   1.411       .  A
C473        C478   1.414       .  A
C473        H480   1.084       .  S
C474        C475   1.424       .  A
C475        C476   1.409       .  A
C475        C482   1.508       .  S
C476        C477   1.401       .  A
C476        H481   1.084       .  S
C477        C478   1.415       .  A
C478        C479   1.507       .  S
C479        H483   1.111       .  S
C479        H484   1.109       .  S
C479        H485   1.111       .  S
C482        H486   1.111       .  S
C482        H487   1.109       .  S
C482        H488   1.111       .  S
C489        C490   1.404       .  A
C489        C494   1.400       .  A
C489        H496   1.085       .  S
C490        C491   1.402       .  A
C491        C492   1.400       .  A
C491        C498   1.507       .  S
C492        C493   1.415       .  A
C492        H497   1.084       .  S
C493        C494   1.411       .  A
C494        C495   1.504       .  S
C495        H499   1.111       .  S
C495        H500   1.109       .  S
C495        H501   1.111       .  S
C498        H502   1.109       .  S
C498        H503   1.110       .  S
C498        H504   1.111       .  S
C505        C506   1.402       .  A
C505        C510   1.409       .  A
C505        H512   1.084       .  S
C506        C507   1.407       .  A
C507        C508   1.403       .  A
C507        C514   1.507       .  S
C508        C509   1.412       .  A
C508        H513   1.083       .  S
C509        C510   1.420       .  A
C510        C511   1.507       .  S
C511        H515   1.111       .  S
C511        H516   1.110       .  S
C511        H517   1.109       .  S
C514        H518   1.110       .  S
C514        H519   1.110       .  S
C514        H520   1.111       .  S
C521        C522   1.413       .  A
C521        C526   1.408       .  A
C521        H528   1.084       .  S
C522        C523   1.416       .  A
C523        C524   1.412       .  A
C523        C530   1.506       .  S
C524        C525   1.410       .  A
C524        H529   1.084       .  S
C525        C526   1.413       .  A
C526        C527   1.508       .  S
C527        H531   1.111       .  S
C527        H532   1.109       .  S
C527        H533   1.111   1_556  S
C530        H534   1.110       .  S
C530        H535   1.110       .  S
C530        H536   1.111       .  S
C537        C538   1.413       .  A
C537        C542   1.415       .  A
C537        H544   1.083       .  S
C538        C539   1.413       .  A
C539        C540   1.409       .  A
C539        C546   1.506       .  S
C540        C541   1.415       .  A
C540        H545   1.083       .  S
C541        C542   1.419       .  A
C542        C543   1.507       .  S
C543        H547   1.111   1_455  S
C543        H548   1.110       .  S
C543        H549   1.110       .  S
C546        H550   1.110       .  S
C546        H551   1.106       .  S
C546        H552   1.111       .  S
C553        C554   1.409       .  A
C553        C558   1.406       .  A
C553        H560   1.083       .  S
C554        C555   1.418       .  A
C555        C556   1.420       .  A
C555        C562   1.506       .  S
C556        C557   1.417       .  A
C556        H561   1.083       .  S
C557        C558   1.421       .  A
C558        C559   1.502       .  S
C559        H563   1.111       .  S
C559        H564   1.108       .  S
C559        H565   1.109       .  S
C562        H566   1.110       .  S
C562        H567   1.110       .  S
C562        H568   1.111       .  S
C569        C570   1.414       .  A
C569        C574   1.397   1_455  A
C569        H576   1.083       .  S
C570        C571   1.421   1_455  A
C571        C572   1.398       .  A
C571        C578   1.511       .  S
C572        C573   1.400       .  A
C572        H577   1.085       .  S
C573        C574   1.402       .  A
C574        C575   1.508   1_655  S
C575        H579   1.111       .  S
C575        H580   1.110   1_455  S
C575        H581   1.110       .  S
C578        H582   1.110       .  S
C578        H583   1.110       .  S
C578        H584   1.111       .  S
C585        C586   1.410       .  A
C585        C590   1.408       .  A
C585        H592   1.084       .  S
C586        C587   1.411       .  A
C587        C588   1.414       .  A
C587        C594   1.505       .  S
C588        C589   1.417       .  A
C588        H593   1.084       .  S
C589        C590   1.417       .  A
C590        C591   1.507       .  S
C591        H595   1.111       .  S
C591        H596   1.110       .  S
C591        H597   1.110       .  S
C594        H598   1.110       .  S
C594        H599   1.110       .  S
C594        H600   1.111       .  S
C601        C602   1.399       .  A
C601        C606   1.397       .  A
C601        H608   1.085       .  S
C602        C603   1.403       .  A
C603        C604   1.397       .  A
C603        C610   1.507       .  S
C604        C605   1.409       .  A
C604        H609   1.084       .  S
C605        C606   1.416       .  A
C606        C607   1.509       .  S
C607        H611   1.111       .  S
C607        H612   1.109       .  S
C607        H613   1.110       .  S
C610        H614   1.110       .  S
C610        H615   1.110       .  S
C610        H616   1.111       .  S
C617        C618   1.413       .  A
C617        C622   1.407       .  A
C617        H624   1.082       .  S
C618        C619   1.422       .  A
C619        C620   1.409       .  A
C619        C626   1.507       .  S
C620        C621   1.404       .  A
C620        H625   1.084       .  S
C621        C622   1.408       .  A
C622        C623   1.506       .  S
C623        H627   1.111       .  S
C623        H628   1.110   1_545  S
C623        H629   1.110       .  S
C626        H630   1.110       .  S
C626        H631   1.110       .  S
C626        H632   1.111       .  S
C633        C634   1.409       .  A
C633        C638   1.413       .  A
C633        H640   1.084       .  S
C634        C635   1.412       .  A
C635        C636   1.406       .  A
C635        C642   1.508       .  S
C636        C637   1.411       .  A
C636        H641   1.084       .  S
C637        C638   1.415       .  A
C638        C639   1.505       .  S
C639        H643   1.111       .  S
C639        H644   1.110       .  S
C639        H645   1.111       .  S
C642        H646   1.111       .  S
C642        H647   1.109       .  S
C642        H648   1.111       .  S
C649        C650   1.401       .  A
C649        C654   1.412       .  A
C649        H656   1.084       .  S
C650        C651   1.417       .  A
C651        C652   1.404       .  A
C651        C658   1.508       .  S
C652        C653   1.405       .  A
C652        H657   1.084       .  S
C653        C654   1.426       .  A
C654        C655   1.507   1_554  S
C655        H659   1.111   1_556  S
C655        H660   1.111       .  S
C655        H661   1.108       .  S
C658        H662   1.109       .  S
C658        H663   1.111       .  S
C658        H664   1.110       .  S
C665        C666   1.405       .  A
C665        C670   1.399       .  A
C665        H672   1.085       .  S
C666        C667   1.402       .  A
C667        C668   1.404       .  A
C667        C674   1.505       .  S
C668        C669   1.416       .  A
C668        H673   1.084       .  S
C669        C670   1.408       .  A
C670        C671   1.503       .  S
C671        H675   1.110       .  S
C671        H676   1.110       .  S
C671        H677   1.110       .  S
C674        H678   1.110       .  S
C674        H679   1.110       .  S
C674        H680   1.111       .  S
C681        C682   1.399       .  A
C681        C686   1.413       .  A
C681        H688   1.084       .  S
C682        C683   1.415       .  A
C683        C684   1.405       .  A
C683        C690   1.508       .  S
C684        C685   1.407       .  A
C684        H689   1.084       .  S
C685        C686   1.431       .  A
C686        C687   1.509       .  S
C687        H691   1.111       .  S
C687        H692   1.110       .  S
C687        H693   1.110       .  S
C690        H694   1.110       .  S
C690        H695   1.111       .  S
C690        H696   1.110       .  S
C697        C698   1.400       .  A
C697        C702   1.404       .  A
C697        H704   1.084       .  S
C698        C699   1.416       .  A
C699        C700   1.408       .  A
C699        C706   1.508       .  S
C700        C701   1.402       .  A
C700        H705   1.084       .  S
C701        C702   1.417       .  A
C702        C703   1.509       .  S
C703        H707   1.111       .  S
C703        H708   1.111       .  S
C703        H709   1.109       .  S
C706        H710   1.110       .  S
C706        H711   1.111       .  S
C706        H712   1.111       .  S
C713        C714   1.400       .  A
C713        C718   1.401       .  A
C713        H720   1.085       .  S
C714        C715   1.420       .  A
C715        C716   1.411       .  A
C715        C722   1.508       .  S
C716        C717   1.402       .  A
C716        H721   1.084       .  S
C717        C718   1.418       .  A
C718        C719   1.510       .  S
C719        H723   1.110       .  S
C719        H724   1.111       .  S
C719        H725   1.110       .  S
C722        H726   1.110       .  S
C722        H727   1.109       .  S
C722        H728   1.111       .  S
C729        C730   1.417       .  A
C729        C734   1.412       .  A
C729        H736   1.083       .  S
C730        C731   1.421       .  A
C731        C732   1.411       .  A
C731        C738   1.508       .  S
C732        C733   1.409       .  A
C732        H737   1.084       .  S
C733        C734   1.412       .  A
C734        C735   1.507       .  S
C735        H739   1.111       .  S
C735        H740   1.110       .  S
C735        H741   1.110       .  S
C738        H742   1.110       .  S
C738        H743   1.109       .  S
C738        H744   1.111       .  S
C745        C746   1.415       .  A
C745        C750   1.408       .  A
C745        H752   1.083       .  S
C746        C747   1.421       .  A
C747        C748   1.411       .  A
C747        C754   1.507       .  S
C748        C749   1.404       .  A
C748        H753   1.084       .  S
C749        C750   1.408       .  A
C750        C751   1.507       .  S
C751        H755   1.111       .  S
C751        H756   1.110       .  S
C751        H757   1.110       .  S
C754        H758   1.110       .  S
C754        H759   1.110       .  S
C754        H760   1.111       .  S
C761        C762   1.407       .  A
C761        C766   1.407       .  A
C761        H768   1.085       .  S
C762        C763   1.410       .  A
C763        C764   1.410       .  A
C763        C770   1.505   1_545  S
C764        C765   1.412       .  A
C764        H769   1.084   1_556  S
C765        C766   1.417       .  A
C766        C767   1.507       .  S
C767        H771   1.111       .  S
C767        H772   1.110       .  S
C767        H773   1.110       .  S
C770        H774   1.110       .  S
C770        H775   1.110   1_565  S
C770        H776   1.111       .  S
C777        C778   1.407       .  A
C777        C782   1.407       .  A
C777        H784   1.085       .  S
C778        C779   1.404       .  A
C779        C780   1.404       .  A
C779        C786   1.506       .  S
C780        C781   1.412       .  A
C780        H785   1.084       .  S
C781        C782   1.418       .  A
C782        C783   1.508       .  S
C783        H787   1.111       .  S
C783        H788   1.110       .  S
C783        H789   1.110       .  S
C786        H790   1.110       .  S
C786        H791   1.110       .  S
C786        H792   1.111       .  S
C793        C794   1.410       .  A
C793        C798   1.409       .  A
C793        H800   1.084       .  S
C794        C795   1.414       .  A
C795        C796   1.409       .  A
C795        C802   1.507       .  S
C796        C797   1.412       .  A
C796        H801   1.084       .  S
C797        C798   1.417       .  A
C798        C799   1.507       .  S
C799        H803   1.111       .  S
C799        H804   1.110       .  S
C799        H805   1.110       .  S
C802        H806   1.110       .  S
C802        H807   1.110       .  S
C802        H808   1.111       .  S
C809        C810   1.409       .  A
C809        C814   1.406       .  A
C809        H816   1.084       .  S
C810        C811   1.416       .  A
C811        C812   1.408       .  A
C811        C818   1.508       .  S
C812        C813   1.409       .  A
C812        H817   1.084       .  S
C813        C814   1.417       .  A
C814        C815   1.509       .  S
C815        H819   1.111       .  S
C815        H820   1.111       .  S
C815        H821   1.110       .  S
C818        H822   1.109       .  S
C818        H823   1.110   1_565  S
C818        H824   1.111   1_565  S
C825        C826   1.409   1_655  A
C825        C830   1.401       .  A
C825        H832   1.083   1_655  S
C826        C827   1.423   1_455  A
C827        C828   1.404       .  A
C827        C834   1.509       .  S
C828        C829   1.401       .  A
C828        H833   1.084       .  S
C829        C830   1.414       .  A
C830        C831   1.510       .  S
C831        H835   1.111       .  S
C831        H836   1.109       .  S
C831        H837   1.111       .  S
C834        H838   1.110       .  S
C834        H839   1.110   1_655  S
C834        H840   1.111       .  S
C841        C842   1.414       .  A
C841        C846   1.397       .  A
C841        H848   1.084       .  S
C842        C843   1.410       .  A
C843        C844   1.399       .  A
C843        C850   1.505       .  S
C844        C845   1.411       .  A
C844        H849   1.084       .  S
C845        C846   1.407       .  A
C846        C847   1.506       .  S
C847        H851   1.110       .  S
C847        H852   1.111       .  S
C847        H853   1.110       .  S
C850        H854   1.111       .  S
C850        H855   1.108       .  S
C850        H856   1.111       .  S
C857        C858   1.417       .  A
C857        C862   1.412       .  A
C857        H864   1.079       .  S
C858        C859   1.422       .  A
C859        C860   1.418       .  A
C859        C866   1.506       .  S
C860        C861   1.412       .  A
C860        H865   1.084       .  S
C861        C862   1.413       .  A
C862        C863   1.508       .  S
C863        H867   1.111       .  S
C863        H868   1.110       .  S
C863        H869   1.110       .  S
C866        H870   1.110       .  S
C866        H871   1.110       .  S
C866        H872   1.111       .  S
C873        C874   1.403       .  A
C873        C878   1.411       .  A
C873        H880   1.084       .  S
C874        C875   1.429       .  A
C875        C876   1.415       .  A
C875        C882   1.509       .  S
C876        C877   1.405       .  A
C876        H881   1.083       .  S
C877        C878   1.431       .  A
C878        C879   1.510       .  S
C879        H883   1.111       .  S
C879        H884   1.110       .  S
C879        H885   1.108       .  S
C882        H886   1.110       .  S
C882        H887   1.110       .  S
C882        H888   1.111       .  S
C889        C890   1.404       .  A
C889        C894   1.399       .  A
C889        H896   1.085       .  S
C890        C891   1.409       .  A
C891        C892   1.410       .  A
C891        C898   1.505       .  S
C892        C893   1.413       .  A
C892        H897   1.082       .  S
C893        C894   1.418       .  A
C894        C895   1.507       .  S
C895        H899   1.111       .  S
C895        H900   1.110       .  S
C895        H901   1.107       .  S
C898        H902   1.110       .  S
C898        H903   1.110       .  S
C898        H904   1.111       .  S
C905        C906   1.403       .  A
C905        C910   1.415       .  A
C905        H912   1.084       .  S
C906        C907   1.415       .  A
C907        C908   1.414       .  A
C907        C914   1.507       .  S
C908        C909   1.412       .  A
C908        H913   1.083       .  S
C909        C910   1.427       .  A
C910        C911   1.508       .  S
C911        H915   1.111       .  S
C911        H916   1.110       .  S
C911        H917   1.111       .  S
C914        H918   1.110       .  S
C914        H919   1.109       .  S
C914        H920   1.111       .  S
C921        C922   1.413       .  A
C921        C926   1.415       .  A
C921        H928   1.082       .  S
C922        C923   1.424       .  A
C923        C924   1.410       .  A
C923        C930   1.509       .  S
C924        C925   1.408       .  A
C924        H929   1.084       .  S
C925        C926   1.419       .  A
C926        C927   1.507       .  S
C927        H931   1.111       .  S
C927        H932   1.111       .  S
C927        H933   1.109       .  S
C930        H934   1.110       .  S
C930        H935   1.109       .  S
C930        H936   1.111       .  S
C937        C938   1.408       .  A
C937        C942   1.410       .  A
C937        H944   1.083       .  S
C938        C939   1.425       .  A
C939        C940   1.415       .  A
C939        C946   1.507       .  S
C940        C941   1.407       .  A
C940        H945   1.084       .  S
C941        C942   1.423       .  A
C942        C943   1.509       .  S
C943        H947   1.111       .  S
C943        H948   1.111       .  S
C943        H949   1.110       .  S
C946        H950   1.109       .  S
C946        H951   1.110       .  S
C946        H952   1.111       .  S
