geometry optimzed in LAMMPS
_audit_creation_date              2020-11-30 
_audit_creation_method            'lammps2cif' 
_symmetry_space_group_name_H-M    'P1' 
_symmetry_Int_Tables_number       1 
_symmetry_cell_setting            triclinic 
loop_ 
_symmetry_equiv_pos_as_xyz 
  x,y,z 
_cell_length_a                    29.42438495 
_cell_length_b                    29.431870545974782 
_cell_length_c                    88.24108504709815 
_cell_angle_alpha                 90.04329118878275 
_cell_angle_beta                  89.96771230807578 
_cell_angle_gamma                 120.00217280046773 
loop_ 
_atom_site_label 
_atom_site_type_symbol 
_atom_site_fract_x 
_atom_site_fract_y 
_atom_site_fract_z 
_atom_site_charge 
O1          O  0.03430529  0.08344969  0.24977754    -0.72500
O2          O  0.03407259  0.94700951  0.25078455    -0.73500
O3          O  0.03601699  0.01482267  0.22755954    -0.62100
O4          O  0.03245597  0.01682756  0.27300607    -0.70500
O5          O  0.94536930  0.96966808  0.27252560    -0.70100
O6          O  0.94891572  0.97306463  0.22705670    -0.61400
O7          O  0.94703940  0.90331819  0.24959982    -0.73900
O8          O  0.94715495  0.03976381  0.24999497    -0.72600
Cu9        Cu  0.03726661  0.01698116  0.25030488     1.04600
Cu10       Cu  0.94405395  0.96993855  0.24977180     1.04300
C11         C  0.99072448  0.08304705  0.24987321     0.93700
C12         C  0.99058629  0.90368408  0.25020628     0.92800
C13         C  0.99298881  0.99429592  0.22015053     0.84900
C14         C  0.98842476  0.99328504  0.27989298     0.91200
O15         O  0.04143462  0.58694761  0.24985041    -0.72500
O16         O  0.04266998  0.45096770  0.25018731    -0.73500
O17         O  0.04200887  0.51836646  0.22732843    -0.62100
O18         O  0.04244794  0.52011345  0.27275880    -0.70500
O19         O  0.95535623  0.47366728  0.27294814    -0.70100
O20         O  0.95486677  0.47540659  0.22740206    -0.61400
O21         O  0.95553182  0.40704815  0.24986924    -0.73900
O22         O  0.95433928  0.54274130  0.25044355    -0.72600
Cu23       Cu  0.04520174  0.52061911  0.25002973     1.04600
Cu24       Cu  0.95198111  0.47320468  0.25016774     1.04300
C25         C  0.99766125  0.58624053  0.25016095     0.93700
C26         C  0.99917229  0.40759058  0.25000311     0.92800
C27         C  0.99839579  0.49688712  0.22020889     0.84900
C28         C  0.99909396  0.49692920  0.28000761     0.91200
O29         O  0.53080567  0.01242035  0.22742363    -0.72500
O30         O  0.53105093  0.01195633  0.27291617    -0.73500
O31         O  0.53200395  0.94416385  0.25004599    -0.62100
O32         O  0.52952267  0.07938630  0.25030054    -0.70500
O33         O  0.44241119  0.03478535  0.25058972    -0.70100
O34         O  0.44486923  0.89971076  0.24971117    -0.61400
O35         O  0.44396413  0.96533174  0.27292195    -0.73900
O36         O  0.44366827  0.96839946  0.22740247    -0.72600
Cu37       Cu  0.53391557  0.01350164  0.25016441     1.04600
Cu38       Cu  0.44069689  0.96550754  0.25015687     1.04300
C39         C  0.48726929  0.99092062  0.22025303     0.93700
C40         C  0.48753092  0.98839560  0.28007332     0.92800
C41         C  0.48869606  0.90062060  0.24985670     0.84900
C42         C  0.48563553  0.07841958  0.25050192     0.91200
O43         O  0.45057468  0.47051114  0.27273594    -0.72500
O44         O  0.45243143  0.47339351  0.22725558    -0.73500
O45         O  0.45058440  0.40352780  0.24977358    -0.62100
O46         O  0.45190571  0.54042817  0.25022372    -0.70500
O47         O  0.53904281  0.58389034  0.24987322    -0.70100
O48         O  0.53765438  0.44661487  0.25069350    -0.61400
O49         O  0.53953362  0.51482961  0.22754140    -0.73900
O50         O  0.53770120  0.51680577  0.27297862    -0.72600
Cu51       Cu  0.44833628  0.47047315  0.24998607     1.04600
Cu52       Cu  0.54155968  0.51697935  0.25028079     1.04300
C53         C  0.49390409  0.49372959  0.27999279     0.93700
C54         C  0.49629738  0.49450715  0.22023957     0.92800
C55         C  0.49390364  0.40347219  0.25031330     0.84900
C56         C  0.49549698  0.58363101  0.24998874     0.91200
O57         O  0.01405387  0.04002884  0.43941775    -0.72500
O58         O  0.01358416  0.04024386  0.39392758    -0.73500
O59         O  0.94444857  0.03757975  0.41687066    -0.62100
O60         O  0.08355168  0.04323595  0.41655757    -0.70500
O61         O  0.04161080  0.95614499  0.41647634    -0.70100
O62         O  0.90234534  0.95048137  0.41674512    -0.61400
O63         O  0.97143227  0.95314125  0.39385016    -0.73900
O64         O  0.97196050  0.95292478  0.43935154    -0.72600
Cu65       Cu  0.01531727  0.04330820  0.41668843     1.04600
Cu66       Cu  0.97047383  0.95011860  0.41660055     1.04300
C67         C  0.99280482  0.99642604  0.44654368     0.93700
C68         C  0.99240894  0.99673145  0.38672672     0.92800
C69         C  0.90167504  0.99353193  0.41689713     0.84900
C70         C  0.08435376  0.00027474  0.41648825     0.91200
O71         O  0.02204909  0.53854640  0.39396447    -0.72500
O72         O  0.01894030  0.53942176  0.43949232    -0.73500
O73         O  0.08757949  0.53754157  0.41720837    -0.62100
O74         O  0.95251324  0.54043829  0.41623949    -0.70500
O75         O  0.90786304  0.45337569  0.41697133    -0.70100
O76         O  0.04260273  0.45043412  0.41702321    -0.61400
O77         O  0.97511809  0.45230802  0.43972353    -0.73900
O78         O  0.97477001  0.45152488  0.39423797    -0.72600
Cu79       Cu  0.02183170  0.54207900  0.41673011     1.04600
Cu80       Cu  0.97356003  0.44889973  0.41699225     1.04300
C81         C  0.99859178  0.49473649  0.38694624     0.93700
C82         C  0.99688473  0.49610094  0.44676762     0.92800
C83         C  0.08631513  0.49352788  0.41713165     0.84900
C84         C  0.90886394  0.49723248  0.41655507     0.91200
O85         O  0.53549696  0.94927217  0.41645339    -0.72500
O86         O  0.40361959  0.95793067  0.41741578    -0.73500
O87         O  0.46756148  0.95362148  0.39419106    -0.62100
O88         O  0.47116215  0.95396308  0.43970093    -0.70500
O89         O  0.51712702  0.04104013  0.43955890    -0.70100
O90         O  0.51691567  0.04048974  0.39410030    -0.61400
O91         O  0.45053076  0.04493873  0.41689478    -0.73900
O92         O  0.58247893  0.03627905  0.41685000    -0.72600
Cu93       Cu  0.46776341  0.95064014  0.41694530     1.04600
Cu94       Cu  0.51837630  0.04372525  0.41684927     1.04300
C95         C  0.57988811  0.99163975  0.41662579     0.93700
C96         C  0.40617228  0.00253606  0.41717446     0.92800
C97         C  0.49211289  0.99696273  0.38699108     0.84900
C98         C  0.49471523  0.99766667  0.44678425     0.91200
O99         O  0.40977565  0.45556284  0.41747736    -0.72500
O100        O  0.54736721  0.45799518  0.41636789    -0.73500
O101        O  0.48123866  0.45834198  0.43967231    -0.62100
O102        O  0.47604190  0.45562312  0.39410583    -0.70500
O103        O  0.52103509  0.54272954  0.39387921    -0.70100
O104        O  0.52165656  0.54536996  0.43940364    -0.61400
O105        O  0.59003438  0.54509988  0.41658894    -0.73900
O106        O  0.45242212  0.54261918  0.41659039    -0.72600
Cu107      Cu  0.47711127  0.45381603  0.41692095     1.04600
Cu108      Cu  0.52273374  0.54698802  0.41659840     1.04300
C109        C  0.40947898  0.49878048  0.41709714     0.93700
C110        C  0.59033017  0.50184532  0.41641965     0.92800
C111        C  0.50189691  0.50216976  0.44670837     0.84900
C112        C  0.49831936  0.49895784  0.38683262     0.91200
O113        O  0.95889382  0.90964682  0.08357992    -0.72500
O114        O  0.96265495  0.04796837  0.08315068    -0.73500
O115        O  0.96112307  0.97867710  0.06065642    -0.62100
O116        O  0.96048607  0.97930771  0.10608415    -0.70500
O117        O  0.04761545  0.02136144  0.10617749    -0.70100
O118        O  0.04820935  0.01910243  0.06067669    -0.61400
O119        O  0.04975908  0.08977328  0.08308911    -0.73900
O120        O  0.04601546  0.95157042  0.08382886    -0.72600
Cu121      Cu  0.95774289  0.97743436  0.08336320     1.04600
Cu122      Cu  0.05095463  0.02196184  0.08344440     1.04300
C123        C  0.00194000  0.90890321  0.08380977     0.93700
C124        C  0.00675685  0.09063821  0.08303586     0.92800
C125        C  0.00466883  0.99853057  0.05351588     0.84900
C126        C  0.00395219  0.00037036  0.11328580     0.91200
O127        O  0.96247103  0.54753533  0.08409269    -0.72500
O128        O  0.96190004  0.41106133  0.08275989    -0.73500
O129        O  0.96233030  0.47778893  0.10616299    -0.62100
O130        O  0.96246997  0.48212820  0.06073248    -0.70500
O131        O  0.04956279  0.52229767  0.06071180    -0.70100
O132        O  0.04947169  0.52219084  0.10618788    -0.61400
O133        O  0.04899994  0.45382767  0.08336840    -0.73900
O134        O  0.04960354  0.59064898  0.08357350    -0.72600
Cu135      Cu  0.95925681  0.47802651  0.08343704     1.04600
Cu136      Cu  0.05248847  0.52375669  0.08345970     1.04300
C137        C  0.00613280  0.59058506  0.08393596     0.93700
C138        C  0.00522010  0.41084015  0.08296183     0.92800
C139        C  0.00587206  0.50001491  0.11333157     0.84900
C140        C  0.00603785  0.50285737  0.05358395     0.91200
O141        O  0.54346563  0.01733863  0.06079259    -0.72500
O142        O  0.54042157  0.01921547  0.10629225    -0.73500
O143        O  0.54264358  0.95073339  0.08391135    -0.62100
O144        O  0.54123210  0.08633388  0.08308762    -0.70500
O145        O  0.45410130  0.04247745  0.08347686    -0.70100
O146        O  0.45557561  0.90670990  0.08298786    -0.61400
O147        O  0.45333885  0.97337023  0.10598842    -0.73900
O148        O  0.45635274  0.97636431  0.06050068    -0.72600
Cu149      Cu  0.54496938  0.01999227  0.08354678     1.04600
Cu150      Cu  0.45176532  0.97314682  0.08322251     1.04300
C151        C  0.50021277  0.99669104  0.05350125     0.93700
C152        C  0.49655055  0.99633405  0.11330688     0.92800
C153        C  0.49932454  0.90733738  0.08339008     0.84900
C154        C  0.49755915  0.08581390  0.08327359     0.91200
O155        O  0.46075757  0.40972434  0.08361064    -0.72500
O156        O  0.46341568  0.54744198  0.08309590    -0.73500
O157        O  0.46256084  0.47833420  0.06061928    -0.62100
O158        O  0.46174742  0.47945947  0.10611946    -0.70500
O159        O  0.54887917  0.52227371  0.10619570    -0.70100
O160        O  0.54965947  0.51889517  0.06071408    -0.61400
O161        O  0.55052712  0.58990490  0.08291535    -0.73900
O162        O  0.54789142  0.45223023  0.08396781    -0.72600
Cu163      Cu  0.45905486  0.47720208  0.08335866     1.04600
Cu164      Cu  0.55227445  0.52231373  0.08345614     1.04300
C165        C  0.50399286  0.40937136  0.08384369     0.93700
C166        C  0.50730079  0.59034313  0.08291590     0.92800
C167        C  0.50621710  0.49839085  0.05351858     0.84900
C168        C  0.50523761  0.50126016  0.11332001     0.91200
O169        O  0.09695538  0.03849831  0.91616042    -0.72500
O170        O  0.95959655  0.90308970  0.91724271    -0.73500
O171        O  0.02639727  0.96945835  0.89398297    -0.62100
O172        O  0.03061773  0.97271797  0.93947053    -0.70500
O173        O  0.98488891  0.01412045  0.93964022    -0.70100
O174        O  0.98499322  0.01514795  0.89419822    -0.61400
O175        O  0.91679293  0.94740644  0.91686825    -0.73900
O176        O  0.05412957  0.08274834  0.91694595    -0.72600
Cu177      Cu  0.02986914  0.96935471  0.91671395     1.04600
Cu178      Cu  0.98377007  0.01647269  0.91692352     1.04300
C179        C  0.09715635  0.08197974  0.91647041     0.93700
C180        C  0.91660142  0.90393539  0.91707776     0.92800
C181        C  0.00522118  0.99204414  0.88693496     0.84900
C182        C  0.00792681  0.99346204  0.94669605     0.91200
O183        O  0.98339099  0.52499700  0.93961221    -0.72500
O184        O  0.98393877  0.52559382  0.89405322    -0.73500
O185        O  0.91567208  0.45761745  0.91672228    -0.62100
O186        O  0.05257525  0.59369977  0.91688642    -0.70500
O187        O  0.09564647  0.54966303  0.91639857    -0.70100
O188        O  0.95898055  0.41380667  0.91702544    -0.61400
O189        O  0.02629422  0.48083503  0.89398655    -0.73900
O190        O  0.02876191  0.48325819  0.93946386    -0.72600
Cu191      Cu  0.98241754  0.52708717  0.91681644     1.04600
Cu192      Cu  0.02890482  0.48036220  0.91671913     1.04300
C193        C  0.00628161  0.50420815  0.94669809     0.93700
C194        C  0.00470330  0.50284779  0.88685998     0.92800
C195        C  0.91581156  0.41428796  0.91686574     0.84900
C196        C  0.09568214  0.59305326  0.91665404     0.91200
O197        O  0.59607982  0.04891347  0.91600998    -0.72500
O198        O  0.45896877  0.91324119  0.91707801    -0.73500
O199        O  0.52489889  0.98088492  0.89376290    -0.62100
O200        O  0.53045950  0.98181800  0.93924623    -0.70500
O201        O  0.48528794  0.02375941  0.93987781    -0.70100
O202        O  0.48282283  0.02588554  0.89442953    -0.61400
O203        O  0.41601818  0.95741506  0.91729353    -0.73900
O204        O  0.55317818  0.09306099  0.91701757    -0.72600
Cu205      Cu  0.52910450  0.97965680  0.91649042     1.04600
Cu206      Cu  0.48290389  0.02664661  0.91717880     1.04300
C207        C  0.59622349  0.09236075  0.91640963     0.93700
C208        C  0.41592465  0.91398008  0.91735214     0.92800
C209        C  0.50321022  0.00341141  0.88693567     0.84900
C210        C  0.50806803  0.00237468  0.94670516     0.91200
O211        O  0.48464191  0.51532250  0.89413950    -0.72500
O212        O  0.48458021  0.51558952  0.93957904    -0.73500
O213        O  0.55314974  0.58386345  0.91682851    -0.62100
O214        O  0.41646251  0.44761494  0.91685466    -0.70500
O215        O  0.45988302  0.40392296  0.91714424    -0.70100
O216        O  0.59643830  0.54001870  0.91658934    -0.61400
O217        O  0.52995832  0.47382328  0.93959109    -0.73900
O218        O  0.52755242  0.47110334  0.89411947    -0.72600
Cu219      Cu  0.48319248  0.51714364  0.91685083     1.04600
Cu220      Cu  0.52990937  0.47062322  0.91686579     1.04300
C221        C  0.50588927  0.49301213  0.88697394     0.93700
C222        C  0.50782269  0.49530467  0.94672228     0.92800
C223        C  0.59630664  0.58333262  0.91669952     0.84900
C224        C  0.41664623  0.40431081  0.91698255     0.91200
O225        O  0.97774968  0.95903607  0.60617338    -0.72500
O226        O  0.97448890  0.95986334  0.56066826    -0.73500
O227        O  0.04467857  0.96076966  0.58295706    -0.62100
O228        O  0.90705181  0.95837167  0.58399935    -0.70500
O229        O  0.94971291  0.04546261  0.58355428    -0.70100
O230        O  0.08727212  0.04786798  0.58344952    -0.61400
O231        O  0.01847641  0.04696499  0.56072662    -0.73900
O232        O  0.01777919  0.04608044  0.60629467    -0.72600
Cu233      Cu  0.97447823  0.95644210  0.58343383     1.04600
Cu234      Cu  0.01981224  0.04962544  0.58350939     1.04300
C235        C  0.99804807  0.00246431  0.61338690     0.93700
C236        C  0.99616454  0.00345386  0.55352668     0.92800
C237        C  0.08760238  0.00464295  0.58316837     0.84900
C238        C  0.90677631  0.00166726  0.58389091     0.91200
O239        O  0.02635869  0.54990704  0.56078468    -0.72500
O240        O  0.02340585  0.54916243  0.60626953    -0.73500
O241        O  0.09362875  0.54977040  0.58394006    -0.62100
O242        O  0.95671611  0.54889848  0.58312953    -0.70500
O243        O  0.91338049  0.46178816  0.58358616    -0.70100
O244        O  0.05011431  0.46269190  0.58319158    -0.61400
O245        O  0.98286272  0.46208227  0.60614111    -0.73900
O246        O  0.98142484  0.46278896  0.56073656    -0.72600
Cu247      Cu  0.02658280  0.55252474  0.58353354     1.04600
Cu248      Cu  0.98042484  0.45931375  0.58341266     1.04300
C249        C  0.00379834  0.50637190  0.55361059     0.93700
C250        C  0.00315690  0.50551323  0.61335044     0.92800
C251        C  0.09334029  0.50620559  0.58361589     0.84900
C252        C  0.91354427  0.50525495  0.58329400     0.91200
O253        O  0.54541517  0.96399010  0.58337179    -0.72500
O254        O  0.40980544  0.96582388  0.58382000    -0.73500
O255        O  0.47665210  0.96444461  0.56084928    -0.62100
O256        O  0.47882041  0.96508072  0.60627156    -0.70500
O257        O  0.52019651  0.05220352  0.60618455    -0.70100
O258        O  0.52221939  0.05153861  0.56070145    -0.61400
O259        O  0.45395175  0.05291416  0.58309241    -0.73900
O260        O  0.58926659  0.05109062  0.58378625    -0.72600
Cu261      Cu  0.47605195  0.96176547  0.58357098     1.04600
Cu262      Cu  0.52298987  0.05498095  0.58343358     1.04300
C263        C  0.58877683  0.00742848  0.58364822     0.93700
C264        C  0.41054689  0.00960207  0.58347243     0.92800
C265        C  0.49933552  0.00781959  0.55362101     0.84900
C266        C  0.49969538  0.00873815  0.61336785     0.91200
O267        O  0.52631157  0.54985088  0.56098875    -0.72500
O268        O  0.52432238  0.54880648  0.60644778    -0.73500
O269        O  0.59319006  0.54747831  0.58396229    -0.62100
O270        O  0.45857075  0.55102091  0.58354628    -0.70500
O271        O  0.41386753  0.46390944  0.58337968    -0.70100
O272        O  0.54845197  0.46037354  0.58371391    -0.61400
O273        O  0.48088292  0.46165462  0.60634659    -0.73900
O274        O  0.48223949  0.46272876  0.56079360    -0.72600
Cu275      Cu  0.52728043  0.55232034  0.58374268     1.04600
Cu276      Cu  0.47974373  0.45909845  0.58355684     1.04300
C277        C  0.50426131  0.50647477  0.55373076     0.93700
C278        C  0.50219046  0.50515956  0.61354209     0.92800
C279        C  0.59207607  0.50349792  0.58388700     0.84900
C280        C  0.41495722  0.50787342  0.58339464     0.91200
O281        O  0.04913063  0.09106171  0.75100219    -0.72500
O282        O  0.91066843  0.95682143  0.74987478    -0.73500
O283        O  0.97906658  0.02136493  0.77315818    -0.62100
O284        O  0.98098072  0.02695088  0.72771790    -0.70500
O285        O  0.02023969  0.97921890  0.72712624    -0.70100
O286        O  0.02207577  0.97727086  0.77263037    -0.61400
O287        O  0.95247983  0.91152255  0.74980586    -0.73900
O288        O  0.09081747  0.04573176  0.74991995    -0.72600
Cu289      Cu  0.97850490  0.02564444  0.75045943     1.04600
Cu290      Cu  0.02291202  0.97689180  0.74984825     1.04300
C291        C  0.09175295  0.08956953  0.75054412     0.93700
C292        C  0.90985051  0.91299981  0.74976406     0.92800
C293        C  0.00041102  0.99865882  0.78005454     0.84900
C294        C  0.00042387  0.00346248  0.72027518     0.91200
O295        O  0.04839483  0.59811647  0.75068361    -0.72500
O296        O  0.91130845  0.46254820  0.74953539    -0.73500
O297        O  0.97822124  0.52860566  0.77285785    -0.62100
O298        O  0.98194504  0.53221998  0.72736706    -0.70500
O299        O  0.02235292  0.48555048  0.72732540    -0.70100
O300        O  0.02252139  0.48577845  0.77277158    -0.61400
O301        O  0.95421661  0.41833853  0.74999940    -0.73900
O302        O  0.09142447  0.55405403  0.75014627    -0.72600
Cu303      Cu  0.97844737  0.53191182  0.75011005     1.04600
Cu304      Cu  0.02416515  0.48441806  0.75006173     1.04300
C305        C  0.09148597  0.59751229  0.75050044     0.93700
C306        C  0.91121045  0.41910263  0.74968346     0.92800
C307        C  0.00021539  0.50694523  0.77997088     0.84900
C308        C  0.00217492  0.50891450  0.72019784     0.91200
O309        O  0.52045985  0.99068141  0.77278749    -0.72500
O310        O  0.51919073  0.98901714  0.72730509    -0.73500
O311        O  0.58827558  0.05831604  0.74985597    -0.62100
O312        O  0.45194663  0.92181681  0.75021302    -0.70500
O313        O  0.40842625  0.96539891  0.74971915    -0.70100
O314        O  0.54470054  0.10185329  0.75039566    -0.61400
O315        O  0.47815909  0.03508936  0.72733987    -0.73900
O316        O  0.47549121  0.03281210  0.77286597    -0.72600
Cu317      Cu  0.52153696  0.98846973  0.75004640     1.04600
Cu318      Cu  0.47514579  0.03528795  0.75007867     1.04300
C319        C  0.49787118  0.01157800  0.77999564     0.93700
C320        C  0.49875167  0.01213659  0.72017493     0.92800
C321        C  0.58793912  0.10155484  0.75011522     0.84900
C322        C  0.40870735  0.92211828  0.74993897     0.91200
O323        O  0.47966790  0.52459829  0.72766190    -0.72500
O324        O  0.47973026  0.52165408  0.77316867    -0.73500
O325        O  0.54769648  0.59124546  0.75059715    -0.62100
O326        O  0.41133100  0.45484549  0.75027469    -0.70500
O327        O  0.45449265  0.41087860  0.75017824    -0.70100
O328        O  0.59092415  0.54738931  0.74983449    -0.61400
O329        O  0.52393973  0.47874889  0.77273063    -0.73900
O330        O  0.52085961  0.47867818  0.72732241    -0.72600
Cu331      Cu  0.47807494  0.52461441  0.75044144     1.04600
Cu332      Cu  0.52415049  0.47747501  0.74999590     1.04300
C333        C  0.49982884  0.50152398  0.72035061     0.93700
C334        C  0.50189864  0.49982749  0.78010663     0.92800
C335        C  0.59082735  0.59076343  0.75021062     0.84900
C336        C  0.41138484  0.41144919  0.75025739     0.91200
C337        C  0.72064705  0.20665595  0.74980934     0.20700
C338        C  0.77546460  0.23017891  0.74966295    -0.39100
C339        C  0.80317470  0.28513505  0.74960257     0.19700
C340        C  0.77823402  0.31447178  0.74966296     0.22400
C341        C  0.72336883  0.29094103  0.74982433    -0.39600
C342        C  0.69563261  0.23592609  0.74990249     0.21200
N343        N  0.68551555  0.15511426  0.74989259    -0.32900
C344        C  0.63778996  0.15152092  0.75005307    -0.10500
C345        C  0.64245222  0.20108122  0.75006842    -0.29300
N346        N  0.81350591  0.36600741  0.74962032    -0.45900
C347        C  0.86116239  0.36938982  0.74955829    -0.05200
C348        C  0.85633393  0.31979944  0.74954001    -0.22500
H349        H  0.79508907  0.20737247  0.74961694     0.19300
H350        H  0.70375225  0.31375689  0.74989935     0.18100
H351        H  0.61116382  0.21031169  0.75016124     0.14400
H352        H  0.88752225  0.31042366  0.74953599     0.14200
H353        H  0.69352162  0.12428367  0.74983604     0.32400
H354        H  0.80565565  0.39694593  0.74969717     0.35100
C355        C  0.19629262  0.73061478  0.75043076     0.20700
C356        C  0.21948509  0.78546308  0.75033041    -0.39100
C357        C  0.27450693  0.81361169  0.75011159     0.19700
C358        C  0.30411423  0.78897062  0.74998938     0.22400
C359        C  0.28091685  0.73411663  0.75006182    -0.39600
C360        C  0.22588072  0.70595509  0.75029568     0.21200
N361        N  0.14481564  0.69513214  0.75062494    -0.32900
C362        C  0.14151802  0.64751036  0.75059111    -0.10500
C363        C  0.19129350  0.65262771  0.75040329    -0.29300
N364        N  0.35559791  0.82447310  0.74986959    -0.45900
C365        C  0.35881921  0.87205697  0.74991619    -0.05200
C366        C  0.30904716  0.86691764  0.75005310    -0.22500
H367        H  0.19638896  0.80478193  0.75043730     0.19300
H368        H  0.30402058  0.71480754  0.74996552     0.18100
H369        H  0.20083940  0.62156712  0.75029104     0.14400
H370        H  0.29947879  0.89796462  0.75016269     0.14200
H371        H  0.11379637  0.70285264  0.75070294     0.32400
H372        H  0.38664486  0.81679941  0.74979686     0.35100
C373        C  0.80395185  0.78079029  0.74965750     0.20700
C374        C  0.78020922  0.72595627  0.74960786    -0.39100
C375        C  0.72524415  0.69842662  0.74986928     0.19700
C376        C  0.69613391  0.72358742  0.75016988     0.22400
C377        C  0.71990692  0.77850311  0.75021855    -0.39600
C378        C  0.77494745  0.80606878  0.74994376     0.21200
N379        N  0.85553374  0.81568959  0.74948668    -0.32900
C380        C  0.85949093  0.86356720  0.74966673    -0.10500
C381        C  0.81007121  0.85925111  0.74994124    -0.29300
N382        N  0.64453397  0.68846406  0.75036619    -0.45900
C383        C  0.64084791  0.64066001  0.75017488    -0.05200
C384        C  0.69035837  0.64527457  0.74986995    -0.22500
H385        H  0.80287657  0.70619173  0.74938197     0.19300
H386        H  0.69724805  0.79827623  0.75045272     0.18100
H387        H  0.80111676  0.89071762  0.75017651     0.14400
H388        H  0.69954702  0.61396963  0.74965470     0.14200
H389        H  0.88617983  0.80742586  0.74930628     0.32400
H390        H  0.61374488  0.69651260  0.75058601     0.35100
C391        C  0.30584885  0.27877878  0.75003714     0.20700
C392        C  0.28188848  0.22389439  0.74933274    -0.39100
C393        C  0.22688919  0.19637503  0.75010443     0.19700
C394        C  0.19810334  0.22167398  0.75149290     0.22400
C395        C  0.22204779  0.27648595  0.75222176    -0.39600
C396        C  0.27695901  0.30397046  0.75140747     0.21200
N397        N  0.35742483  0.31384164  0.74944138    -0.32900
C398        C  0.36131618  0.36164057  0.75040293    -0.10500
C399        C  0.31196645  0.35709744  0.75163880    -0.29300
N400        N  0.14649752  0.18684102  0.75186103    -0.45900
C401        C  0.14226772  0.13896629  0.75070869    -0.05200
C402        C  0.19158499  0.14324409  0.74960154    -0.22500
H403        H  0.30438002  0.20412026  0.74820456     0.19300
H404        H  0.19954915  0.29627759  0.75326869     0.18100
H405        H  0.30296651  0.38842647  0.75260087     0.14400
H406        H  0.20035697  0.11179696  0.74849318     0.14200
H407        H  0.38806703  0.30576779  0.74840255     0.32400
H408        H  0.11598999  0.19515515  0.75279742     0.35100
C409        C  0.49817334  0.52432226  0.68070355     0.20700
C410        C  0.49937804  0.55174782  0.66756794    -0.39100
C411        C  0.50038689  0.52830183  0.65382008     0.19700
C412        C  0.49932509  0.48075417  0.65321400     0.22400
C413        C  0.49908392  0.45384226  0.66634236    -0.39600
C414        C  0.49895127  0.47769598  0.68007810     0.21200
N415        N  0.49733242  0.53833711  0.69515329    -0.32900
C416        C  0.49867218  0.50086874  0.70373714    -0.10500
C417        C  0.49976696  0.46245382  0.69476384    -0.29300
N418        N  0.49920198  0.46613614  0.63878594    -0.45900
C419        C  0.50114520  0.50511575  0.63016204    -0.05200
C420        C  0.50216192  0.54469744  0.63910472    -0.22500
H421        H  0.49967550  0.58864822  0.66801862     0.19300
H422        H  0.49916493  0.41713140  0.66589549     0.18100
H423        H  0.50083599  0.42797971  0.69850054     0.14400
H424        H  0.50335676  0.58026214  0.63532890     0.14200
H425        H  0.49702951  0.57180435  0.69894627     0.32400
H426        H  0.49860080  0.43218164  0.63503298     0.35100
C427        C  0.50019280  0.03278392  0.65299192     0.20700
C428        C  0.49794438  0.05862356  0.66608818    -0.39100
C429        C  0.49829870  0.03509116  0.67985921     0.19700
C430        C  0.50167844  0.98985886  0.68053237     0.22400
C431        C  0.50314311  0.96358759  0.66743381    -0.39600
C432        C  0.50177761  0.98657791  0.65365942     0.21200
N433        N  0.50000298  0.04696091  0.63854223    -0.32900
C434        C  0.50040251  0.00895943  0.62997806    -0.10500
C435        C  0.50139694  0.97055112  0.63897128    -0.29300
N436        N  0.50262896  0.97611824  0.69498557    -0.45900
C437        C  0.49901860  0.01240648  0.70354990    -0.05200
C438        C  0.49596290  0.04967745  0.69454189    -0.22500
H439        H  0.49582476  0.09426345  0.66558987     0.19300
H440        H  0.50492962  0.92776678  0.66793183     0.18100
H441        H  0.50214679  0.93588121  0.63524823     0.14400
H442        H  0.49317214  0.08326171  0.69825105     0.14200
H443        H  0.49865875  0.07987747  0.63472882     0.32400
H444        H  0.50501519  0.94376179  0.69879777     0.35100
C445        C  0.78083915  0.47804269  0.58304502     0.20700
C446        C  0.72589556  0.44720026  0.58285489    -0.39100
C447        C  0.69863168  0.47496330  0.58339733     0.19700
C448        C  0.72417819  0.52921797  0.58407557     0.22400
C449        C  0.77902728  0.55998853  0.58425879    -0.39600
C450        C  0.80624158  0.53228655  0.58370201     0.21200
N451        N  0.81577434  0.46131349  0.58273635    -0.32900
C452        C  0.86365567  0.50530153  0.58320292    -0.10500
C453        C  0.85929478  0.55028784  0.58377164    -0.29300
N454        N  0.68951429  0.54620884  0.58441589    -0.45900
C455        C  0.64151167  0.50250670  0.58393869    -0.05200
C456        C  0.64553586  0.45725659  0.58332086    -0.22500
H457        H  0.70588376  0.40479221  0.58232941     0.19300
H458        H  0.79904620  0.60239358  0.58479356     0.18100
H459        H  0.89072838  0.59068830  0.58428726     0.14400
H460        H  0.61391219  0.41694432  0.58279319     0.14200
H461        H  0.80757296  0.42245284  0.58229187     0.32400
H462        H  0.69800720  0.58516785  0.58488420     0.35100
C463        C  0.22585714  0.53277516  0.58453763     0.20700
C464        C  0.28071776  0.56346854  0.58542280    -0.39100
C465        C  0.30813979  0.53598725  0.58428107     0.19700
C466        C  0.28281177  0.48205912  0.58244964     0.22400
C467        C  0.22799335  0.45138837  0.58155432    -0.39600
C468        C  0.20059968  0.47886329  0.58267731     0.21200
N469        N  0.19092468  0.54946156  0.58517814    -0.32900
C470        C  0.14312911  0.50585313  0.58370443    -0.10500
C471        C  0.14755254  0.46104561  0.58216138    -0.29300
N472        N  0.31762843  0.46527365  0.58183470    -0.45900
C473        C  0.36547818  0.50878766  0.58326715    -0.05200
C474        C  0.36122182  0.55371997  0.58477075    -0.22500
H475        H  0.30056824  0.60561164  0.58688288     0.19300
H476        H  0.20814391  0.40924057  0.58009855     0.18100
H477        H  0.11619595  0.42092968  0.58073117     0.14400
H478        H  0.39266308  0.59380601  0.58618117     0.14200
H479        H  0.19909307  0.58812357  0.58649095     0.32400
H480        H  0.30933872  0.42655303  0.58056252     0.35100
C481        C  0.00289756  0.52887704  0.65300652     0.20700
C482        C  0.00164797  0.55524037  0.66610322    -0.39100
C483        C  0.00116703  0.53130451  0.67987087     0.19700
C484        C  0.00265192  0.48505562  0.68055078     0.22400
C485        C  0.00283465  0.45810587  0.66744200    -0.39600
C486        C  0.00254161  0.48168140  0.65366005     0.21200
N487        N  0.00397229  0.54374501  0.63856822    -0.32900
C488        C  0.00325785  0.50525459  0.62997326    -0.10500
C489        C  0.00222475  0.46577900  0.63895206    -0.29300
N490        N  0.00373070  0.47143013  0.69501594    -0.45900
C491        C  0.00208209  0.50884737  0.70356881    -0.05200
C492        C  0.00013953  0.54667550  0.69454695    -0.22500
H493        H  0.00123255  0.59177548  0.66560969     0.19300
H494        H  0.00330702  0.42159600  0.66793613     0.18100
H495        H  0.00182054  0.43054880  0.63520797     0.14400
H496        H  0.99899534  0.58116368  0.69824211     0.14200
H497        H  0.00429584  0.57754549  0.63478040     0.32400
H498        H  0.00497228  0.43847224  0.69884572     0.35100
C499        C  0.69371141  0.97928457  0.58416836     0.20700
C500        C  0.71720761  0.94790252  0.58440607    -0.39100
C501        C  0.77225171  0.97506059  0.58434005     0.19700
C502        C  0.80158800  0.02930994  0.58404563     0.22400
C503        C  0.77811543  0.06069462  0.58381354    -0.39600
C504        C  0.72308895  0.03353539  0.58389950     0.21200
N505        N  0.64213671  0.96302747  0.58412130    -0.32900
C506        C  0.63868490  0.00726366  0.58382625    -0.10500
C507        C  0.68835018  0.05202056  0.58370057    -0.29300
N508        N  0.85313255  0.04558482  0.58392788    -0.45900
C509        C  0.85667199  0.00139660  0.58412768    -0.05200
C510        C  0.80704907  0.95659585  0.58441807    -0.22500
H511        H  0.69432903  0.90548812  0.58459531     0.19300
H512        H  0.80100056  0.10310946  0.58355668     0.18100
H513        H  0.69772702  0.09256851  0.58345472     0.14400
H514        H  0.79773148  0.91606346  0.58457624     0.14200
H515        H  0.61123143  0.92427158  0.58427334     0.32400
H516        H  0.88399170  0.08435486  0.58365443     0.35100
C517        C  0.22072502  0.03309649  0.58281808     0.20700
C518        C  0.27558491  0.06422425  0.58208655    -0.39100
C519        C  0.30329578  0.03696730  0.58293802     0.19700
C520        C  0.27825124  0.98293019  0.58444547     0.22400
C521        C  0.22350463  0.95189473  0.58522092    -0.39600
C522        C  0.19583154  0.97906686  0.58429621     0.21200
N523        N  0.18539574  0.04927331  0.58217378    -0.32900
C524        C  0.13777609  0.00514970  0.58320891    -0.10500
C525        C  0.14270508  0.96062761  0.58452618    -0.29300
N526        N  0.31324210  0.96638050  0.58483266    -0.45900
C527        C  0.36093350  0.01014317  0.58356473    -0.05200
C528        C  0.35641307  0.05500111  0.58238564    -0.22500
H529        H  0.29520136  0.10644532  0.58086593     0.19300
H530        H  0.20388193  0.90964903  0.58636137     0.18100
H531        H  0.11158793  0.92024594  0.58558732     0.14400
H532        H  0.38772077  0.09524929  0.58119659     0.14200
H533        H  0.19317567  0.08788060  0.58107782     0.32400
H534        H  0.30515790  0.92765081  0.58586672     0.35100
C535        C  0.00069358  0.98160025  0.68051313     0.20700
C536        C  0.00099445  0.95523707  0.66730072    -0.39100
C537        C  0.99987962  0.97887462  0.65362848     0.19700
C538        C  0.99949380  0.02571281  0.65314879     0.22400
C539        C  0.99839313  0.05168358  0.66637208    -0.39600
C540        C  0.99859255  0.02755004  0.68005403     0.21200
N541        N  0.00195604  0.96741038  0.69489454    -0.32900
C542        C  0.99989358  0.00416176  0.70364898    -0.10500
C543        C  0.99743565  0.04216393  0.69482587    -0.29300
N544        N  0.99946696  0.04045401  0.63874364    -0.45900
C545        C  0.99886636  0.00223805  0.63002279    -0.05200
C546        C  0.99895723  0.96308933  0.63888131    -0.22500
H547        H  0.00190283  0.91893779  0.66764246     0.19300
H548        H  0.99735414  0.08791591  0.66603280     0.18100
H549        H  0.99584588  0.07623732  0.69870682     0.14400
H550        H  0.99884867  0.92810652  0.63503467     0.14200
H551        H  0.00361317  0.93449399  0.69854225     0.32400
H552        H  0.99899796  0.07395928  0.63506092     0.35100
C553        C  0.49003189  0.50626853  0.84743501     0.20700
C554        C  0.47313219  0.52136764  0.83452368    -0.39100
C555        C  0.48778134  0.50959871  0.82060566     0.19700
C556        C  0.51703727  0.48468730  0.81962084     0.22400
C557        C  0.53397937  0.46958165  0.83254755    -0.39600
C558        C  0.51926962  0.48132522  0.84648394     0.21200
N559        N  0.48143521  0.51331169  0.86195396    -0.32900
C560        C  0.50534737  0.49274595  0.87032947    -0.10500
C561        C  0.52932327  0.47229227  0.86109531    -0.29300
N562        N  0.52577836  0.47799335  0.80506853    -0.45900
C563        C  0.50197155  0.49886300  0.79675318    -0.05200
C564        C  0.47782483  0.51893560  0.80603981    -0.22500
H565        H  0.45030822  0.54089678  0.83526487     0.19300
H566        H  0.55691940  0.45017407  0.83180695     0.18100
H567        H  0.55136685  0.45369214  0.86460049     0.14400
H568        H  0.45593301  0.53775639  0.80259325     0.14200
H569        H  0.46069098  0.53117298  0.86592301     0.32400
H570        H  0.54668706  0.46037725  0.80104357     0.35100
C571        C  0.48566226  0.01733727  0.84746853     0.20700
C572        C  0.46856672  0.03264146  0.83459968    -0.39100
C573        C  0.48315319  0.02114359  0.82059031     0.19700
C574        C  0.51241426  0.99625522  0.81953106     0.22400
C575        C  0.52934155  0.98085513  0.83237765    -0.39600
C576        C  0.51482368  0.99236348  0.84635646     0.21200
N577        N  0.47762012  0.02431496  0.86206925    -0.32900
C578        C  0.50181207  0.00358495  0.87028002    -0.10500
C579        C  0.52536411  0.98319538  0.86087686    -0.29300
N580        N  0.52136214  0.98991980  0.80498143    -0.45900
C581        C  0.49767083  0.01086860  0.79666814    -0.05200
C582        C  0.47338392  0.03079863  0.80599641    -0.22500
H583        H  0.44581612  0.05222707  0.83543549     0.19300
H584        H  0.55231273  0.96150300  0.83154596     0.18100
H585        H  0.54755263  0.96458171  0.86422001     0.14400
H586        H  0.45153421  0.04967965  0.80256510     0.14200
H587        H  0.45711734  0.04222852  0.86619302     0.32400
H588        H  0.54233033  0.97237734  0.80095108     0.35100
C589        C  0.81015083  0.28168682  0.91644885     0.20700
C590        C  0.78616281  0.22678137  0.91618978    -0.39100
C591        C  0.73111272  0.19941893  0.91613758     0.19700
C592        C  0.70221650  0.22481445  0.91634332     0.22400
C593        C  0.72620069  0.27969032  0.91657612    -0.39600
C594        C  0.78120999  0.30703498  0.91661522     0.21200
N595        N  0.86181449  0.31661502  0.91657007    -0.32900
C596        C  0.86572288  0.36449882  0.91679489    -0.10500
C597        C  0.81629961  0.36013135  0.91682723    -0.29300
N598        N  0.65054498  0.18997209  0.91638818    -0.45900
C599        C  0.64648545  0.14203566  0.91621420    -0.05200
C600        C  0.69589712  0.14630266  0.91602241    -0.22500
H601        H  0.80867891  0.20685287  0.91607110     0.19300
H602        H  0.70369256  0.29962320  0.91674670     0.18100
H603        H  0.80730272  0.39157237  0.91697171     0.14400
H604        H  0.70480506  0.11479859  0.91592313     0.14200
H605        H  0.89249977  0.30839593  0.91647030     0.32400
H606        H  0.61993942  0.19829220  0.91659481     0.35100
C607        C  0.30979445  0.78170296  0.91776110     0.20700
C608        C  0.28559766  0.72681522  0.91741253    -0.39100
C609        C  0.23058118  0.69970831  0.91726678     0.19700
C610        C  0.20187223  0.72529946  0.91751040     0.22400
C611        C  0.22606947  0.78018097  0.91790488    -0.39600
C612        C  0.28108292  0.80729250  0.91799094     0.21200
N613        N  0.36149836  0.81640103  0.91763575    -0.32900
C614        C  0.36569175  0.86439625  0.91773152    -0.10500
C615        C  0.31639800  0.86033904  0.91800669    -0.29300
N616        N  0.15016544  0.69063389  0.91723011    -0.45900
C617        C  0.14595075  0.64264905  0.91680923    -0.05200
C618        C  0.19525413  0.64668841  0.91680650    -0.22500
H619        H  0.30794917  0.70672300  0.91715786     0.19300
H620        H  0.20372334  0.80028503  0.91801775     0.18100
H621        H  0.30762638  0.89193807  0.91803992     0.14400
H622        H  0.20401800  0.61509098  0.91654573     0.14200
H623        H  0.39201784  0.80795870  0.91734659     0.32400
H624        H  0.11964638  0.69908840  0.91735129     0.35100
C625        C  0.98790224  0.51468317  0.84727106     0.20700
C626        C  0.97139309  0.52993007  0.83430136    -0.39100
C627        C  0.98599664  0.51782384  0.82042254     0.19700
C628        C  0.01479486  0.49241141  0.81953713     0.22400
C629        C  0.03123394  0.47705312  0.83251132    -0.39600
C630        C  0.01663675  0.48919619  0.84639968     0.21200
N631        N  0.97978925  0.52248419  0.86177404    -0.32900
C632        C  0.00358327  0.50192181  0.87020930    -0.10500
C633        C  0.02683943  0.48057935  0.86103174    -0.29300
N634        N  0.02357264  0.48541981  0.80502126    -0.45900
C635        C  0.00013026  0.50644652  0.79661569    -0.05200
C636        C  0.97635039  0.52714672  0.80581300    -0.22500
H637        H  0.94900690  0.54992945  0.83497187     0.19300
H638        H  0.05386303  0.45730241  0.83183920     0.18100
H639        H  0.04870264  0.46184355  0.86458800     0.14400
H640        H  0.95482716  0.54626615  0.80228450     0.14200
H641        H  0.95959629  0.54098742  0.86569209     0.32400
H642        H  0.04418416  0.46738498  0.80107349     0.35100
C643        C  0.81031734  0.77181272  0.91699081     0.20700
C644        C  0.78604235  0.71693502  0.91714538    -0.39100
C645        C  0.73105901  0.68993277  0.91686547     0.19700
C646        C  0.70241957  0.71558423  0.91643725     0.22400
C647        C  0.72670575  0.77047769  0.91623357    -0.39600
C648        C  0.78170633  0.79749299  0.91654970     0.21200
N649        N  0.86202157  0.80641082  0.91728549    -0.32900
C650        C  0.86631634  0.85443502  0.91703574    -0.10500
C651        C  0.81709535  0.85050343  0.91657176    -0.29300
N652        N  0.65069575  0.68094391  0.91633927    -0.45900
C653        C  0.64647453  0.63294916  0.91668491    -0.05200
C654        C  0.69572068  0.63694275  0.91702268    -0.22500
H655        H  0.80830435  0.69676137  0.91751261     0.19300
H656        H  0.70444040  0.79065165  0.91591397     0.18100
H657        H  0.80842783  0.88216074  0.91627261     0.14400
H658        H  0.70443794  0.60532305  0.91737371     0.14200
H659        H  0.89248121  0.79788400  0.91762699     0.32400
H660        H  0.62019704  0.68941665  0.91605773     0.35100
C661        C  0.20308568  0.21446266  0.91664549     0.20700
C662        C  0.22697531  0.26932467  0.91708044    -0.39100
C663        C  0.28199275  0.29680799  0.91691624     0.19700
C664        C  0.31101746  0.27157864  0.91639114     0.22400
C665        C  0.28711544  0.21667668  0.91592573    -0.39600
C666        C  0.23205327  0.18917615  0.91606848     0.21200
N667        N  0.15144310  0.17954412  0.91679725    -0.32900
C668        C  0.14743411  0.13165374  0.91631892    -0.10500
C669        C  0.19688235  0.13602238  0.91583057    -0.29300
N670        N  0.36266888  0.30660445  0.91639065    -0.45900
C671        C  0.36652657  0.35444941  0.91689299    -0.05200
C672        C  0.31703136  0.34994321  0.91721558    -0.22500
H673        H  0.20438107  0.28914283  0.91753516     0.19300
H674        H  0.30971145  0.19685383  0.91551221     0.18100
H675        H  0.20584252  0.10456978  0.91543914     0.14400
H676        H  0.30794895  0.38130983  0.91761823     0.14200
H677        H  0.12080485  0.18778757  0.91726735     0.32400
H678        H  0.39339643  0.29847273  0.91603202     0.35100
C679        C  0.98899844  0.00553007  0.84741486     0.20700
C680        C  0.97328137  0.02187163  0.83450694    -0.39100
C681        C  0.98658565  0.00873759  0.82057479     0.19700
C682        C  0.01337486  0.98130582  0.81957456     0.22400
C683        C  0.02900377  0.96485267  0.83249242    -0.39600
C684        C  0.01580075  0.97810433  0.84643437     0.21200
N685        N  0.98169876  0.01378923  0.86195067    -0.32900
C686        C  0.00405198  0.99152424  0.87029129    -0.10500
C687        C  0.02567673  0.96877985  0.86102562    -0.29300
N688        N  0.02164462  0.97410877  0.80501883    -0.45900
C689        C  0.99999995  0.99717017  0.79670808    -0.05200
C690        C  0.97772251  0.01916371  0.80600809    -0.22500
H691        H  0.95250517  0.04348602  0.83525874     0.19300
H692        H  0.05013424  0.94358994  0.83174326     0.18100
H693        H  0.04612279  0.94850410  0.86449991     0.14400
H694        H  0.95791043  0.04010442  0.80256927     0.14200
H695        H  0.96287948  0.03356673  0.86594868     0.32400
H696        H  0.04095676  0.95485885  0.80099078     0.35100
C697        C  0.53163075  0.50111530  0.01386732     0.20700
C698        C  0.55872140  0.50137743  0.00073683    -0.39100
C699        C  0.53405151  0.49966978  0.98697453     0.19700
C700        C  0.48673632  0.49911276  0.98636164     0.22400
C701        C  0.45943613  0.49828209  0.99947345    -0.39600
C702        C  0.48345015  0.49871127  0.01321504     0.21200
N703        N  0.54615866  0.50164374  0.02833067    -0.32900
C704        C  0.50645039  0.49858410  0.03689025    -0.10500
C705        C  0.46659500  0.49652837  0.02788343    -0.29300
N706        N  0.47175532  0.49809858  0.97194441    -0.45900
C707        C  0.50924213  0.49695216  0.96332537    -0.05200
C708        C  0.54872247  0.49775523  0.97225911    -0.22500
H709        H  0.59588106  0.50219022  0.00120371     0.19300
H710        H  0.42194126  0.49676094  0.99900730     0.18100
H711        H  0.43044823  0.49427249  0.03158724     0.14400
H712        H  0.58355801  0.49741933  0.96848085     0.14200
H713        H  0.58051423  0.50319327  0.03214655     0.32400
H714        H  0.43766298  0.49724863  0.96819217     0.35100
C715        C  0.47948079  0.69543859  0.08269109     0.20700
C716        C  0.44778340  0.71855183  0.08264658    -0.39100
C717        C  0.47453688  0.77351762  0.08280745     0.19700
C718        C  0.52877329  0.80324868  0.08300026     0.22400
C719        C  0.56055597  0.78011511  0.08301795    -0.39600
C720        C  0.53373602  0.72502594  0.08285586     0.21200
N721        N  0.46342386  0.64397441  0.08265045    -0.32900
C722        C  0.50767097  0.64055533  0.08277584    -0.10500
C723        C  0.55241201  0.69032702  0.08290311    -0.29300
N724        N  0.54451466  0.85469934  0.08323153    -0.45900
C725        C  0.49996746  0.85766885  0.08319271    -0.05200
C726        C  0.45552608  0.80782990  0.08290304    -0.22500
H727        H  0.40536953  0.69540534  0.08253692     0.19300
H728        H  0.60297086  0.80327204  0.08318738     0.18100
H729        H  0.59300046  0.69978796  0.08307024     0.14400
H730        H  0.41483976  0.79804967  0.08281861     0.14200
H731        H  0.42465949  0.61302818  0.08257890     0.32400
H732        H  0.58316278  0.88586704  0.08341998     0.35100
C733        C  0.52534022  0.21854344  0.08336837     0.20700
C734        C  0.55675815  0.27334082  0.08342297    -0.39100
C735        C  0.52961021  0.30115231  0.08361886     0.19700
C736        C  0.47533063  0.27632687  0.08373014     0.22400
C737        C  0.44389198  0.22148882  0.08368463    -0.39600
C738        C  0.47105718  0.19364210  0.08350749     0.21200
N739        N  0.54162805  0.18332222  0.08322593    -0.32900
C740        C  0.49741789  0.13564895  0.08328960    -0.10500
C741        C  0.45258549  0.14043472  0.08346337    -0.29300
N742        N  0.45914731  0.31166568  0.08387090    -0.45900
C743        C  0.50349176  0.35925294  0.08386894    -0.05200
C744        C  0.54820177  0.35431154  0.08371243    -0.22500
H745        H  0.59919242  0.29287050  0.08332868     0.19300
H746        H  0.40146133  0.20196832  0.08378760     0.18100
H747        H  0.41203259  0.10922670  0.08357166     0.14400
H748        H  0.58879664  0.38543346  0.08362604     0.14200
H749        H  0.58042551  0.19123290  0.08312652     0.32400
H750        H  0.42039929  0.30390648  0.08393870     0.35100
C751        C  0.52517762  0.99642640  0.01390912     0.20700
C752        C  0.55210606  0.99596619  0.00081679    -0.39100
C753        C  0.52908199  0.99717774  0.98700779     0.19700
C754        C  0.48323187  0.99945646  0.98633415     0.22400
C755        C  0.45581585  0.99882478  0.99939297    -0.39600
C756        C  0.47839508  0.99688447  0.01316396     0.21200
N757        N  0.53929181  0.99668487  0.02840795    -0.32900
C758        C  0.50071943  0.99645009  0.03687993    -0.10500
C759        C  0.46194605  0.99623819  0.02779279    -0.29300
N760        N  0.47040502  0.00224752  0.97191440    -0.45900
C761        C  0.50784640  0.00090668  0.96332093    -0.05200
C762        C  0.54500044  0.99742893  0.97229520    -0.22500
H763        H  0.58842086  0.99510390  0.00134078     0.19300
H764        H  0.41972899  0.00012109  0.99887209     0.18100
H765        H  0.42700481  0.99663385  0.03142327     0.14400
H766        H  0.57934127  0.99607599  0.96855455     0.14200
H767        H  0.57279180  0.99660758  0.03230725     0.32400
H768        H  0.43782639  0.00433487  0.96812997     0.35100
C769        C  0.02875985  0.50407679  0.01384650     0.20700
C770        C  0.05371914  0.50133378  0.00061571    -0.39100
C771        C  0.03010254  0.50267883  0.98695552     0.19700
C772        C  0.98556469  0.50734260  0.98649852     0.22400
C773        C  0.96011772  0.50925225  0.99973875    -0.39600
C774        C  0.98322636  0.50698048  0.01340471     0.21200
N775        N  0.04322619  0.50319691  0.02822833    -0.32900
C776        C  0.00603725  0.50445350  0.03697766    -0.10500
C777        C  0.96791598  0.50674074  0.02817182    -0.29300
N778        N  0.97158904  0.50896339  0.97209760    -0.45900
C779        C  0.00704255  0.50449622  0.96335088    -0.05200
C780        C  0.04398376  0.50024549  0.97219913    -0.22500
H781        H  0.08880911  0.49817277  0.00093412     0.19300
H782        H  0.92482191  0.51204728  0.99942497     0.18100
H783        H  0.93383112  0.50829305  0.03206846     0.14400
H784        H  0.07689425  0.49652533  0.96833753     0.14200
H785        H  0.07571804  0.50075097  0.03187603     0.32400
H786        H  0.93959430  0.51226762  0.96844025     0.35100
C787        C  0.02857069  0.80324740  0.08411943     0.20700
C788        C  0.05981586  0.77967826  0.08411728    -0.39100
C789        C  0.03252845  0.72474480  0.08413850     0.19700
C790        C  0.97824520  0.69550361  0.08415198     0.22400
C791        C  0.94693610  0.71909194  0.08412680    -0.39600
C792        C  0.97427497  0.77411845  0.08411610     0.21200
N793        N  0.04512018  0.85477932  0.08407294    -0.32900
C794        C  0.00111548  0.85860185  0.08401732    -0.10500
C795        C  0.95607075  0.80912510  0.08405654    -0.29300
N796        N  0.96193255  0.64397103  0.08414735    -0.45900
C797        C  0.00617107  0.64048603  0.08411308    -0.05200
C798        C  0.05098506  0.69002530  0.08411249    -0.22500
H799        H  0.10225458  0.80245200  0.08409234     0.19300
H800        H  0.90449491  0.69631232  0.08410893     0.18100
H801        H  0.91559826  0.80005519  0.08400221     0.14400
H802        H  0.09153073  0.69933624  0.08405869     0.14200
H803        H  0.08400677  0.88548223  0.08403102     0.32400
H804        H  0.92312714  0.61309724  0.08411630     0.35100
C805        C  0.03184872  0.30489586  0.08323636     0.20700
C806        C  0.06272902  0.28085122  0.08374939    -0.39100
C807        C  0.03510187  0.22581926  0.08327716     0.19700
C808        C  0.98088567  0.19703693  0.08241443     0.22400
C809        C  0.95003043  0.22106804  0.08191651    -0.39600
C810        C  0.97764232  0.27605481  0.08234858     0.21200
N811        N  0.04857526  0.35654538  0.08350482    -0.32900
C812        C  0.00470719  0.36059936  0.08279303    -0.10500
C813        C  0.95968155  0.31122200  0.08205296    -0.29300
N814        N  0.96404283  0.14538971  0.08217786    -0.45900
C815        C  0.00779366  0.14115302  0.08287856    -0.05200
C816        C  0.05294077  0.19050156  0.08355875    -0.22500
H817        H  0.10511001  0.30332607  0.08445173     0.19300
H818        H  0.90764443  0.19859706  0.08123867     0.18100
H819        H  0.91930489  0.30229695  0.08141555     0.14400
H820        H  0.09326763  0.19929599  0.08423963     0.14200
H821        H  0.08742235  0.38714345  0.08417803     0.32400
H822        H  0.92513341  0.11487483  0.08159200     0.35100
C823        C  0.98287204  0.99138116  0.98629422     0.20700
C824        C  0.95434282  0.98851021  0.99934901    -0.39100
C825        C  0.97941472  0.99199161  0.01315718     0.19700
C826        C  0.02934847  0.99851489  0.01390100     0.22400
C827        C  0.05742834  0.00026463  0.00084445    -0.39600
C828        C  0.03206567  0.99608150  0.98703089     0.21200
N829        N  0.96828524  0.99031989  0.97182580    -0.32900
C830        C  0.00803587  0.99339915  0.96330899    -0.10500
C831        C  0.04841192  0.99671943  0.97235486    -0.29300
N832        N  0.04506116  0.00242979  0.02837176    -0.45900
C833        C  0.00449512  0.99752165  0.03688185    -0.05200
C834        C  0.96277495  0.99076609  0.02781335    -0.22500
H835        H  0.91564733  0.98424696  0.99879395     0.19300
H836        H  0.09625570  0.00485676  0.00139796     0.18100
H837        H  0.08513320  0.00023270  0.96867527     0.14400
H838        H  0.92555952  0.98612703  0.03146312     0.14200
H839        H  0.93326593  0.98720247  0.96796411     0.32400
H840        H  0.08086785  0.00747570  0.03223082     0.35100
C841        C  0.50920692  0.52920266  0.48644729     0.20700
C842        C  0.51569694  0.55881099  0.49958862    -0.39100
C843        C  0.50967611  0.53257340  0.51336998     0.19700
C844        C  0.49777281  0.48075522  0.51399539     0.22400
C845        C  0.49127332  0.45119420  0.50087234    -0.39600
C846        C  0.49732623  0.47740375  0.48711015     0.21200
N847        N  0.51289808  0.54494069  0.47196896    -0.32900
C848        C  0.50286847  0.50267135  0.46338462    -0.10500
C849        C  0.49300785  0.45986074  0.47242521    -0.29300
N850        N  0.49399123  0.46479767  0.52843307    -0.45900
C851        C  0.50402804  0.50688300  0.53707380    -0.05200
C852        C  0.51395496  0.54991030  0.52810055    -0.22500
H853        H  0.52485544  0.59927223  0.49912118     0.19300
H854        H  0.48208892  0.41072629  0.50134177     0.18100
H855        H  0.48393926  0.42113899  0.46873596     0.14400
H856        H  0.52285516  0.58851729  0.53185817     0.14200
H857        H  0.52110141  0.58188064  0.46816728     0.32400
H858        H  0.48565911  0.42776038  0.53217937     0.35100
C859        C  0.48494698  0.97840235  0.51408096     0.20700
C860        C  0.46878671  0.94644327  0.50114091    -0.39100
C861        C  0.48321950  0.97298816  0.48724387     0.19700
C862        C  0.51162482  0.02719479  0.48632051     0.22400
C863        C  0.52786455  0.05917058  0.49926419    -0.39600
C864        C  0.51336159  0.03261261  0.51316491     0.21200
N865        N  0.47611969  0.96272443  0.52859885    -0.32900
C866        C  0.49917050  0.00728905  0.53698123    -0.10500
C867        C  0.52273383  0.05170451  0.52776886    -0.29300
N868        N  0.51971330  0.04283439  0.47179335    -0.45900
C869        C  0.49611483  0.99824045  0.46342277    -0.05200
C870        C  0.47309586  0.95385882  0.47264809    -0.22500
H871        H  0.44644732  0.90407086  0.50184185     0.19300
H872        H  0.54995377  0.10155328  0.49856247     0.18100
H873        H  0.54397874  0.09238129  0.53128657     0.14400
H874        H  0.45144232  0.91318138  0.46914698     0.14200
H875        H  0.45585501  0.92415647  0.53255132     0.32400
H876        H  0.53959663  0.08139686  0.46782811     0.35100
C877        C  0.01245958  0.52586777  0.48630677     0.20700
C878        C  0.02994441  0.55789881  0.49923516    -0.39100
C879        C  0.01614667  0.53142773  0.51315590     0.19700
C880        C  0.98720270  0.47723924  0.51408970     0.22400
C881        C  0.96982189  0.44523156  0.50117154    -0.39600
C882        C  0.98360004  0.47168335  0.48725949     0.21200
N883        N  0.02052616  0.54139259  0.47177210    -0.32900
C884        C  0.99677278  0.49678826  0.46341773    -0.10500
C885        C  0.97323202  0.45246310  0.47267138    -0.29300
N886        N  0.97922668  0.46160302  0.52860214    -0.45900
C887        C  0.00327694  0.50610579  0.53697973    -0.05200
C888        C  0.02675265  0.55053586  0.52776398    -0.22500
H889        H  0.05262078  0.60025393  0.49850437     0.19300
H890        H  0.94728831  0.40287081  0.50190526     0.18100
H891        H  0.95167658  0.41175131  0.46919555     0.14400
H892        H  0.04858604  0.59119606  0.53127697     0.14200
H893        H  0.04116536  0.57993063  0.46778229     0.32400
H894        H  0.95866429  0.42301970  0.53256272     0.37500
C895        C  0.80391942  0.52541357  0.41617221     0.20700
C896        C  0.78019450  0.55658915  0.41575167    -0.39100
C897        C  0.72513339  0.52923394  0.41611473     0.19700
C898        C  0.69602032  0.47501292  0.41683446     0.22400
C899        C  0.71971446  0.44388859  0.41731465    -0.39600
C900        C  0.77469499  0.47120992  0.41694350     0.21200
N901        N  0.85552102  0.54175771  0.41589147    -0.32900
C902        C  0.85907437  0.49761327  0.41649797    -0.10500
C903        C  0.80949058  0.45286119  0.41716565    -0.29300
N904        N  0.64443105  0.45845570  0.41696598    -0.45900
C905        C  0.64057209  0.50240040  0.41636374    -0.05200
C906        C  0.69007870  0.54737382  0.41583102    -0.22500
H907        H  0.80290666  0.59896765  0.41515219     0.19300
H908        H  0.69699897  0.40150380  0.41789214     0.18100
H909        H  0.80019712  0.41237249  0.41774924     0.14400
H910        H  0.69914139  0.58779658  0.41530037     0.14200
H911        H  0.88639511  0.58051917  0.41532735     0.32400
H912        H  0.61371126  0.41961222  0.41747735     0.35100
C913        C  0.27622167  0.46995409  0.41728612     0.20700
C914        C  0.22129453  0.43858369  0.41753145    -0.39100
C915        C  0.19349210  0.46584399  0.41718822     0.19700
C916        C  0.21858158  0.52008943  0.41659946     0.22400
C917        C  0.27335523  0.55134193  0.41631346    -0.39600
C918        C  0.30108662  0.52417739  0.41671036     0.21200
N919        N  0.31164321  0.45384861  0.41757056    -0.32900
C920        C  0.35926507  0.49819632  0.41716927    -0.10500
C921        C  0.35425798  0.54280685  0.41664571    -0.29300
N922        N  0.18359774  0.53663954  0.41651238    -0.45900
C923        C  0.13580921  0.49270944  0.41706549    -0.05200
C924        C  0.14027165  0.44768283  0.41747132    -0.22500
H925        H  0.20170413  0.39618877  0.41801853     0.19300
H926        H  0.29294983  0.59374004  0.41588283     0.18100
H927        H  0.38534283  0.58337641  0.41622307     0.14400
H928        H  0.10887859  0.40726058  0.41797057     0.14200
H929        H  0.30392058  0.41513052  0.41797138     0.32400
H930        H  0.19176643  0.57550369  0.41612462     0.35100
C931        C  0.97902524  0.97525384  0.51385424     0.20700
C932        C  0.96134269  0.94371801  0.50082548    -0.39100
C933        C  0.97675640  0.97056379  0.48697203     0.19700
C934        C  0.00730881  0.02466239  0.48617950     0.22400
C935        C  0.02500578  0.05618523  0.49920277    -0.39600
C936        C  0.00963579  0.02934312  0.51305518     0.21200
N937        N  0.97018550  0.95922845  0.52835296    -0.32900
C938        C  0.99536427  0.00342466  0.53685077    -0.10500
C939        C  0.02033872  0.04798174  0.52771345    -0.29300
N940        N  0.01674153  0.04067961  0.47169165    -0.45900
C941        C  0.99221467  0.99645205  0.46319591    -0.05200
C942        C  0.96676642  0.95189263  0.47231211    -0.22500
H943        H  0.93753383  0.90141709  0.50143251     0.19300
H944        H  0.04908266  0.09846034  0.49859145     0.18100
H945        H  0.04349566  0.08844877  0.53130989     0.14400
H946        H  0.94407100  0.91139750  0.46869992     0.14200
H947        H  0.94852736  0.92063528  0.53222296     0.32400
H948        H  0.03869572  0.07925216  0.46782675     0.35100
C949        C  0.71146667  0.01604599  0.41718131     0.20700
C950        C  0.76624191  0.04685271  0.41769077    -0.39100
C951        C  0.79356668  0.01929606  0.41743936     0.19700
C952        C  0.76837930  0.96507680  0.41674529     0.22400
C953        C  0.71336464  0.93411154  0.41622989    -0.39600
C954        C  0.68590241  0.96179872  0.41647810     0.21200
N955        N  0.67692780  0.03312731  0.41728042    -0.32900
C956        C  0.62884315  0.98963462  0.41664165    -0.10500
C957        C  0.63270337  0.94422215  0.41613038    -0.29300
N958        N  0.80360733  0.94864900  0.41655554    -0.45900
C959        C  0.85137465  0.99283772  0.41709039    -0.05200
C960        C  0.84663724  0.03758580  0.41767823    -0.22500
H961        H  0.78615225  0.08925669  0.41821598     0.19300
H962        H  0.69347386  0.89171576  0.41565793     0.18100
H963        H  0.60097971  0.90396132  0.41559142     0.14400
H964        H  0.87787621  0.07808575  0.41814203     0.14200
H965        H  0.68560059  0.07215479  0.41778670     0.32400
H966        H  0.79568761  0.90987240  0.41600238     0.35100
C967        C  0.21778528  0.02905412  0.41674655     0.20700
C968        C  0.27281683  0.06006386  0.41702113    -0.39100
C969        C  0.30023894  0.03233669  0.41699673     0.19700
C970        C  0.27464252  0.97803935  0.41673842     0.22400
C971        C  0.21988062  0.94720979  0.41645395    -0.39600
C972        C  0.19260063  0.97479306  0.41646621     0.21200
N973        N  0.18252323  0.04545822  0.41673971    -0.32900
C974        C  0.13475899  0.00116382  0.41645943    -0.10500
C975        C  0.13954944  0.95644486  0.41627158    -0.29300
N976        N  0.30914386  0.96092118  0.41681174    -0.45900
C977        C  0.35723186  0.00448058  0.41711190    -0.05200
C978        C  0.35342199  0.04992529  0.41721744    -0.22500
H979        H  0.29275056  0.10249909  0.41724567     0.19300
H980        H  0.19994274  0.90477397  0.41625168     0.18100
H981        H  0.10833903  0.91590744  0.41606290     0.14400
H982        H  0.38517694  0.09021456  0.41742951     0.14200
H983        H  0.19042011  0.08424184  0.41695537     0.32400
H984        H  0.30045005  0.92187644  0.41663771     0.35100
C985        C  0.47680506  0.49080129  0.15294110     0.20700
C986        C  0.44522248  0.47733426  0.16593714    -0.39100
C987        C  0.47182022  0.48750754  0.17979817     0.19700
C988        C  0.52578501  0.50962788  0.18065771     0.22400
C989        C  0.55742569  0.52331814  0.16765563    -0.39600
C990        C  0.53078593  0.51299977  0.15378239     0.21200
N991        N  0.46089233  0.48403842  0.13844036    -0.32900
C992        C  0.50503854  0.50209279  0.12997914    -0.10500
C993        C  0.54946239  0.52062467  0.13913844    -0.29300
N994        N  0.54141200  0.51485523  0.19517009    -0.45900
C995        C  0.49704814  0.49581150  0.20358967    -0.05200
C996        C  0.45285848  0.47842906  0.19440841    -0.22500
H997        H  0.40300538  0.45980771  0.16530081     0.19300
H998        H  0.59959041  0.54036170  0.16829162     0.18100
H999        H  0.58983880  0.53687144  0.13555957     0.14400
H1000       H  0.41237090  0.46149221  0.19795297     0.14200
H1001       H  0.42233787  0.46786491  0.13454178     0.32400
H1002       H  0.57984645  0.53028310  0.19910175     0.35100
C1003       C  0.51622971  0.51924615  0.31957987     0.20700
C1004       C  0.54137052  0.54798438  0.33265367    -0.39100
C1005       C  0.51926443  0.52309176  0.34645058     0.19700
C1006       C  0.47599869  0.47306393  0.34716906     0.22400
C1007       C  0.45036574  0.44467617  0.33408954    -0.39600
C1008       C  0.47191420  0.46992522  0.32029306     0.21200
N1009       N  0.52988602  0.53385845  0.30511580    -0.32900
C1010       C  0.49347170  0.49394051  0.29659367    -0.10500
C1011       C  0.45648205  0.45348174  0.30561944    -0.29300
N1012       N  0.46330578  0.45777404  0.36164209    -0.45900
C1013       C  0.49822404  0.49869820  0.37018149    -0.05200
C1014       C  0.53363876  0.54021254  0.36112299    -0.22500
H1015       H  0.57558675  0.58682874  0.33212276     0.19300
H1016       H  0.41615937  0.40583195  0.33461550     0.18100
H1017       H  0.42345471  0.41666359  0.30192709     0.14400
H1018       H  0.56581586  0.57763847  0.36479483     0.14200
H1019       H  0.56166097  0.56898731  0.30126162     0.32400
H1020       H  0.43239389  0.42201892  0.36547889     0.35100
C1021       C  0.51713941  0.79610044  0.24998195     0.20700
C1022       C  0.54861471  0.77275743  0.24996660    -0.39100
C1023       C  0.52153365  0.71777315  0.24984324     0.19700
C1024       C  0.46725805  0.68831394  0.24976586     0.22400
C1025       C  0.43575924  0.71164367  0.24979451    -0.39600
C1026       C  0.46285895  0.76663223  0.24989505     0.21200
N1027       N  0.53333751  0.84761185  0.24999236    -0.32900
C1028       C  0.48903827  0.85091181  0.24988135    -0.10500
C1029       C  0.44428807  0.80125057  0.24984595    -0.29300
N1030       N  0.45110886  0.63682389  0.24974602    -0.45900
C1031       C  0.49541474  0.63349852  0.24983551    -0.05200
C1032       C  0.54014555  0.68315935  0.24986217    -0.22500
H1033       H  0.59104159  0.79570916  0.25003557     0.19300
H1034       H  0.39332548  0.68869436  0.24973136     0.18100
H1035       H  0.40369897  0.79180897  0.24976052     0.14400
H1036       H  0.58073438  0.69261747  0.24996473     0.14200
H1037       H  0.57209709  0.87857743  0.25003454     0.32400
H1038       H  0.41234426  0.60586105  0.24972975     0.35100
C1039       C  0.51348387  0.21129273  0.25110626     0.20700
C1040       C  0.54519376  0.26606968  0.25157115    -0.39100
C1041       C  0.51852236  0.29434802  0.25116904     0.19700
C1042       C  0.46435308  0.26992304  0.25037761     0.22400
C1043       C  0.43255812  0.21504244  0.24994320    -0.39600
C1044       C  0.45929230  0.18670947  0.25034445     0.21200
N1045       N  0.52948245  0.17584709  0.25125465    -0.32900
C1046       C  0.48526370  0.12824598  0.25061971    -0.10500
C1047       C  0.44058682  0.13334436  0.25004023    -0.29300
N1048       N  0.44869081  0.30567703  0.25000241    -0.45900
C1049       C  0.49322163  0.35314800  0.25053624    -0.05200
C1050       C  0.53757298  0.34767543  0.25129650    -0.22500
H1051       H  0.58756010  0.28526396  0.25214548     0.19300
H1052       H  0.39020240  0.19586295  0.24929234     0.18100
H1053       H  0.40003485  0.10228029  0.24942445     0.14400
H1054       H  0.57822790  0.37853728  0.25181421     0.14200
H1055       H  0.56819011  0.18359318  0.25175970     0.32400
H1056       H  0.41010766  0.29825231  0.24936650     0.35100
C1057       C  0.46703742  0.98117939  0.15290682     0.20700
C1058       C  0.43525457  0.96349649  0.16588539    -0.39100
C1059       C  0.46185980  0.97885273  0.17978236     0.19700
C1060       C  0.51594881  0.00951739  0.18066432     0.22400
C1061       C  0.54770144  0.02732990  0.16769319    -0.39600
C1062       C  0.52111840  0.01186926  0.15380343     0.21200
N1063       N  0.45138228  0.97168655  0.13837884    -0.32900
C1064       C  0.49582750  0.99649621  0.12997373    -0.10500
C1065       C  0.54012819  0.02196448  0.13919147    -0.29300
N1066       N  0.53178590  0.01789703  0.19517628    -0.45900
C1067       C  0.48748401  0.99233370  0.20360113    -0.05200
C1068       C  0.44302607  0.96766309  0.19441148    -0.22500
H1069       H  0.39299137  0.93929447  0.16521257     0.19300
H1070       H  0.59000140  0.05114471  0.16836877     0.18100
H1071       H  0.58071408  0.04479528  0.13567081     0.14400
H1072       H  0.40252571  0.94423297  0.19795635     0.14200
H1073       H  0.41288031  0.94964787  0.13443014     0.32400
H1074       H  0.57036304  0.03938317  0.19910251     0.35100
C1075       C  0.46823862  0.97115772  0.34739004     0.20700
C1076       C  0.44090857  0.94361117  0.33437610    -0.39100
C1077       C  0.46438745  0.96667221  0.32050397     0.19700
C1078       C  0.51187889  0.01315598  0.31968571     0.22400
C1079       C  0.53874006  0.04114807  0.33269261    -0.39600
C1080       C  0.51486904  0.01850075  0.34655635     0.21200
N1081       N  0.45442142  0.95736260  0.36189721    -0.32900
C1082       C  0.49202956  0.99659808  0.37034684    -0.10500
C1083       C  0.53034044  0.03556844  0.36119817    -0.29300
N1084       N  0.52650073  0.02622680  0.30519261    -0.45900
C1085       C  0.48764418  0.98832532  0.29671753    -0.05200
C1086       C  0.44808071  0.95054284  0.30584315    -0.22500
H1087       H  0.40409687  0.90695600  0.33500921     0.19300
H1088       H  0.57550477  0.07784930  0.33206005     0.18100
H1089       H  0.56513369  0.07111681  0.36478710     0.14400
H1090       H  0.41249839  0.91583470  0.30222987     0.14200
H1091       H  0.42117995  0.92360457  0.36582221     0.32400
H1092       H  0.56039573  0.05937585  0.30128694     0.35100
C1093       C  0.97731926  0.48662993  0.15293198     0.20700
C1094       C  0.94565701  0.47049018  0.16593724    -0.39100
C1095       C  0.97255709  0.48427957  0.17979085     0.19700
C1096       C  0.02681758  0.51209125  0.18060599     0.22400
C1097       C  0.05847569  0.52833211  0.16760254    -0.39600
C1098       C  0.03157896  0.51444421  0.15375073     0.21200
N1099       N  0.96132139  0.47798070  0.13844010    -0.32900
C1100       C  0.00569953  0.50034379  0.12997592    -0.10500
C1101       C  0.05034968  0.52359307  0.13911280    -0.29300
N1102       N  0.04283896  0.52002325  0.19509466    -0.45900
C1103       C  0.99847979  0.49712383  0.20356490    -0.05200
C1104       C  0.95381144  0.47440648  0.19443342    -0.22500
H1105       H  0.90324256  0.44862166  0.16531186     0.19300
H1106       H  0.10089487  0.54995763  0.16822833     0.18100
H1107       H  0.09097514  0.54425118  0.13552779     0.14400
H1108       H  0.91320000  0.45345606  0.19802555     0.14200
H1109       H  0.92261754  0.45800568  0.13454963     0.32400
H1110       H  0.08155781  0.53977287  0.19897896     0.35100
C1111       C  0.97653444  0.47374661  0.31975304     0.20700
C1112       C  0.95027982  0.44669420  0.33293649    -0.39100
C1113       C  0.97504116  0.47011062  0.34665071     0.19700
C1114       C  0.02188195  0.51732805  0.34719717     0.22400
C1115       C  0.04861727  0.54388475  0.33401003    -0.39600
C1116       C  0.02428536  0.52002376  0.32029341     0.21200
N1117       N  0.96105148  0.45994003  0.30533262    -0.32900
C1118       C  0.99970613  0.49721911  0.29665025    -0.10500
C1119       C  0.03988939  0.53522852  0.30555504    -0.29300
N1120       N  0.03622786  0.53229684  0.36162419    -0.45900
C1121       C  0.99863733  0.49390095  0.37030132    -0.05200
C1122       C  0.96002907  0.45428364  0.36138721    -0.22500
H1123       H  0.91325413  0.41019955  0.33254794     0.19300
H1124       H  0.08554910  0.58047633  0.33439854     0.18100
H1125       H  0.07540878  0.56959753  0.30174326     0.14400
H1126       H  0.92514480  0.41924460  0.36519419     0.14200
H1127       H  0.92676642  0.42685568  0.30161732     0.32400
H1128       H  0.06960305  0.56630032  0.36534321     0.35100
C1129       C  0.96887096  0.69083061  0.25014926     0.20700
C1130       C  0.93733661  0.71419916  0.25014336    -0.39100
C1131       C  0.96439024  0.76926496  0.25007061     0.19700
C1132       C  0.01865948  0.79873146  0.25000176     0.22400
C1133       C  0.05014833  0.77537377  0.24995545    -0.39600
C1134       C  0.02312931  0.72036232  0.25004293     0.21200
N1135       N  0.95282527  0.63929786  0.25025041    -0.32900
C1136       C  0.99720178  0.63603740  0.25018271    -0.10500
C1137       C  0.04182707  0.68579523  0.25006291    -0.29300
N1138       N  0.03486653  0.85026813  0.25006972    -0.45900
C1139       C  0.99062706  0.85370798  0.25016928    -0.05200
C1140       C  0.94585180  0.80399967  0.25015178    -0.22500
H1141       H  0.89490776  0.69122553  0.25023104     0.19300
H1142       H  0.09257437  0.79835043  0.24989983     0.18100
H1143       H  0.08244724  0.69535524  0.24998563     0.14400
H1144       H  0.90527649  0.79459723  0.25023553     0.14200
H1145       H  0.91409715  0.60827524  0.25032935     0.32400
H1146       H  0.07363891  0.88119420  0.25004713     0.35100
C1147       C  0.01952874  0.21605621  0.25004191     0.20700
C1148       C  0.05132832  0.27084131  0.25002938    -0.39100
C1149       C  0.02458234  0.29906484  0.25003838     0.19700
C1150       C  0.97032567  0.27453725  0.25008634     0.22400
C1151       C  0.93851043  0.21973992  0.25013883    -0.39600
C1152       C  0.96526816  0.19151697  0.25009689     0.21200
N1153       N  0.03539599  0.18051951  0.24993188    -0.32900
C1154       C  0.99094557  0.13303122  0.24991102    -0.10500
C1155       C  0.94636422  0.13822406  0.25002127    -0.29300
N1156       N  0.95449821  0.31010816  0.25004086    -0.45900
C1157       C  0.99897392  0.35759977  0.24997916    -0.05200
C1158       C  0.04352589  0.35236730  0.24996832    -0.22500
H1159       H  0.09374239  0.29005119  0.24996993     0.19300
H1160       H  0.89609332  0.20052716  0.25016161     0.18100
H1161       H  0.90571331  0.10723393  0.25003070     0.14400
H1162       H  0.08418502  0.38333119  0.24992052     0.14200
H1163       H  0.07409035  0.18811350  0.24986834     0.32400
H1164       H  0.91581394  0.30253712  0.25006811     0.35100
C1165       C  0.02345357  0.00904045  0.18063146     0.20700
C1166       C  0.05545663  0.02336924  0.16769109    -0.39100
C1167       C  0.02896769  0.01153213  0.15376268     0.19700
C1168       C  0.97481612  0.98727311  0.15283063     0.22400
C1169       C  0.94288605  0.97299132  0.16575237    -0.39600
C1170       C  0.96932028  0.98480088  0.17965802     0.21200
N1171       N  0.03886085  0.01564580  0.19518575    -0.32900
C1172       C  0.99417041  0.99531411  0.20350352    -0.10500
C1173       C  0.95001433  0.97580428  0.19422124    -0.29300
N1174       N  0.95913411  0.98025580  0.13831835    -0.45900
C1175       C  0.00357972  0.00026263  0.12992847    -0.05200
C1176       C  0.04799317  0.02012515  0.13914429    -0.22500
H1177       H  0.09778006  0.04225110  0.16841417     0.19300
H1178       H  0.90055801  0.95398911  0.16502880     0.18100
H1179       H  0.90930952  0.95741802  0.19766861     0.14400
H1180       H  0.08860874  0.03830516  0.13561912     0.14200
H1181       H  0.07733539  0.03272005  0.19920804     0.32400
H1182       H  0.92055393  0.96296959  0.13436694     0.35100
C1183       C  0.00643079  0.01981536  0.31949726     0.20700
C1184       C  0.02691901  0.05029757  0.33261508    -0.39100
C1185       C  0.00921690  0.02324077  0.34636974     0.19700
C1186       C  0.97447163  0.96974854  0.34701370     0.22400
C1187       C  0.95350906  0.93934150  0.33388897    -0.39600
C1188       C  0.97041041  0.96660531  0.32012908     0.21200
N1189       N  0.01741911  0.03609729  0.30505962    -0.32900
C1190       C  0.98745575  0.99315999  0.29647730    -0.10500
C1191       C  0.95732211  0.94912277  0.30542242    -0.29300
N1192       N  0.96431685  0.95336171  0.36146812    -0.45900
C1193       C  0.99232381  0.99686078  0.37006850    -0.05200
C1194       C  0.02072325  0.04121189  0.36106094    -0.22500
H1195       H  0.05448375  0.09202359  0.33214685     0.19300
H1196       H  0.92589651  0.89762659  0.33435691     0.18100
H1197       H  0.93054582  0.90952025  0.30164963     0.14400
H1198       H  0.04645470  0.08114245  0.36477085     0.14200
H1199       H  0.04337123  0.07409440  0.30125572     0.32400
H1200       H  0.93948723  0.91507000  0.36524876     0.35100
loop_ 
_geom_bond_atom_site_label_1 
_geom_bond_atom_site_label_2 
_geom_bond_distance 
_geom_bond_site_symmetry_2 
_ccdc_geom_bond_type 
O1           Cu9   2.002       .  S
O1           C11   1.276   1_455  A
O2           Cu9   2.015   1_565  S
O2           C12   1.278   1_455  A
O3           Cu9   2.008       .  S
O3           C13   1.277   1_445  A
O4           Cu9   2.008       .  S
O4           C14   1.277   1_445  A
O5          Cu10   2.008       .  S
O5           C14   1.277       .  A
O6          Cu10   2.008       .  S
O6           C13   1.278       .  A
O7          Cu10   2.006       .  S
O7           C12   1.277       .  A
O8          Cu10   2.011   1_545  S
O8           C11   1.278       .  A
Cu9         Cu10   2.376   1_445  S
C11        C1154   1.468       .  S
C12        C1139   1.471       .  S
C13        C1172   1.469       .  S
C14        C1190   1.464       .  S
O15         Cu23   2.010       .  S
O15          C25   1.278   1_455  A
O16         Cu23   2.014       .  S
O16          C26   1.278   1_455  A
O17         Cu23   2.005       .  S
O17          C27   1.277   1_455  A
O18         Cu23   2.007       .  S
O18          C28   1.277   1_455  A
O19         Cu24   2.012       .  S
O19          C28   1.278       .  A
O20         Cu24   2.010       .  S
O20          C27   1.278       .  A
O21         Cu24   2.002       .  S
O21          C26   1.276       .  A
O22         Cu24   2.013       .  S
O22          C25   1.278       .  A
Cu23        Cu24   2.376   1_455  S
C25        C1136   1.472       .  S
C26        C1157   1.468       .  S
C27        C1103   1.469       .  S
C28        C1118   1.469       .  S
O29         Cu37   2.008       .  S
O29          C39   1.277   1_545  A
O30         Cu37   2.009       .  S
O30          C40   1.277   1_545  A
O31         Cu37   2.013   1_565  S
O31          C41   1.278       .  A
O32         Cu37   2.007       .  S
O32          C42   1.277       .  A
O33         Cu38   2.015   1_545  S
O33          C42   1.278       .  A
O34         Cu38   2.001       .  S
O34          C41   1.276       .  A
O35         Cu38   2.011       .  S
O35          C40   1.278       .  A
O36         Cu38   2.010       .  S
O36          C39   1.278       .  A
Cu37        Cu38   2.376   1_545  S
C39        C1067   1.470       .  S
C40        C1085   1.469       .  S
C41        C1028   1.468       .  S
C42        C1046   1.472       .  S
O43         Cu51   2.009       .  S
O43          C53   1.277       .  A
O44         Cu51   2.009       .  S
O44          C54   1.278       .  A
O45         Cu51   2.004       .  S
O45          C55   1.276       .  A
O46         Cu51   2.009       .  S
O46          C56   1.277       .  A
O47         Cu52   2.008       .  S
O47          C56   1.278       .  A
O48         Cu52   2.016       .  S
O48          C55   1.279       .  A
O49         Cu52   2.007       .  S
O49          C54   1.277       .  A
O50         Cu52   2.006       .  S
O50          C53   1.277       .  A
Cu51        Cu52   2.376       .  S
C53        C1010   1.465       .  S
C54         C995   1.470       .  S
C55        C1049   1.471       .  S
C56        C1031   1.469       .  S
O57         Cu65   2.007       .  S
O57          C67   1.277   1_445  A
O58         Cu65   2.010       .  S
O58          C68   1.278   1_445  A
O59         Cu65   2.006   1_655  S
O59          C69   1.278   1_545  A
O60         Cu65   2.009       .  S
O60          C70   1.276       .  A
O61         Cu66   2.010   1_455  S
O61          C70   1.279   1_565  A
O62         Cu66   2.010       .  S
O62          C69   1.277       .  A
O63         Cu66   2.009       .  S
O63          C68   1.277       .  A
O64         Cu66   2.009       .  S
O64          C67   1.278       .  A
Cu65        Cu66   2.376   1_445  S
C67         C941   1.470       .  S
C68        C1193   1.470       .  S
C69         C959   1.470       .  S
C70         C974   1.470       .  S
O71         Cu79   2.012       .  S
O71          C81   1.277   1_455  A
O72         Cu79   2.010       .  S
O72          C82   1.278   1_455  A
O73         Cu79   2.005       .  S
O73          C83   1.277       .  A
O74         Cu79   2.016   1_655  S
O74          C84   1.278       .  A
O75         Cu80   2.002       .  S
O75          C84   1.277       .  A
O76         Cu80   2.009   1_455  S
O76          C83   1.277       .  A
O77         Cu80   2.008       .  S
O77          C82   1.277       .  A
O78         Cu80   2.009       .  S
O78          C81   1.277       .  A
Cu79        Cu80   2.376   1_455  S
C81        C1121   1.469       .  S
C82         C884   1.469       .  S
C83         C923   1.469       .  S
C84         C902   1.471       .  S
O85         Cu93   2.014       .  S
O85          C95   1.278       .  A
O86         Cu93   2.004       .  S
O86          C96   1.277   1_565  A
O87         Cu93   2.010       .  S
O87          C97   1.277       .  A
O88         Cu93   2.010       .  S
O88          C98   1.278       .  A
O89         Cu94   2.005       .  S
O89          C98   1.277   1_545  A
O90         Cu94   2.009       .  S
O90          C97   1.277   1_545  A
O91         Cu94   2.014       .  S
O91          C96   1.278       .  A
O92         Cu94   2.005       .  S
O92          C95   1.278   1_545  A
Cu93        Cu94   2.376   1_565  S
C95         C956   1.471       .  S
C96         C977   1.470       .  S
C97        C1082   1.469       .  S
C98         C869   1.469       .  S
O99        Cu107   2.008       .  S
O99         C109   1.277       .  A
O100       Cu107   2.009       .  S
O100        C110   1.278       .  A
O101       Cu107   2.012       .  S
O101        C111   1.278       .  A
O102       Cu107   2.015       .  S
O102        C112   1.278       .  A
O103       Cu108   2.008       .  S
O103        C112   1.277       .  A
O104       Cu108   2.013       .  S
O104        C111   1.277       .  A
O105       Cu108   2.009       .  S
O105        C110   1.278       .  A
O106       Cu108   2.008       .  S
O106        C109   1.278       .  A
Cu107      Cu108   2.375       .  S
C109        C920   1.469       .  S
C110        C905   1.470       .  S
C111        C848   1.472       .  S
C112       C1013   1.469       .  S
O113       Cu121   2.012       .  S
O113        C123   1.278   1_655  A
O114       Cu121   2.008   1_545  S
O114        C124   1.277   1_655  A
O115       Cu121   2.006       .  S
O115        C125   1.277   1_655  A
O116       Cu121   2.006       .  S
O116        C126   1.277   1_665  A
O117       Cu122   2.008       .  S
O117        C126   1.277       .  A
O118       Cu122   2.011       .  S
O118        C125   1.277   1_545  A
O119       Cu122   2.014       .  S
O119        C124   1.278       .  A
O120       Cu122   2.003   1_565  S
O120        C123   1.277       .  A
Cu121      Cu122   2.376   1_665  S
C123        C794   1.469       .  S
C124        C815   1.472       .  S
C125        C833   1.468       .  S
C126       C1175   1.469       .  S
O127       Cu135   2.001       .  S
O127        C137   1.276   1_655  A
O128       Cu135   2.012       .  S
O128        C138   1.278   1_655  A
O129       Cu135   2.008       .  S
O129        C139   1.277   1_655  A
O130       Cu135   2.007       .  S
O130        C140   1.277   1_655  A
O131       Cu136   2.009       .  S
O131        C140   1.277       .  A
O132       Cu136   2.007       .  S
O132        C139   1.277       .  A
O133       Cu136   2.009       .  S
O133        C138   1.277       .  A
O134       Cu136   2.013       .  S
O134        C137   1.279       .  A
Cu135      Cu136   2.376   1_655  S
C137        C797   1.468       .  S
C138        C812   1.471       .  S
C139       C1100   1.469       .  S
C140        C776   1.466       .  S
O141       Cu149   2.009       .  S
O141        C151   1.277   1_545  A
O142       Cu149   2.011       .  S
O142        C152   1.278   1_545  A
O143       Cu149   2.005   1_565  S
O143        C153   1.277       .  A
O144       Cu149   2.010       .  S
O144        C154   1.278       .  A
O145       Cu150   2.007   1_545  S
O145        C154   1.277       .  A
O146       Cu150   2.014       .  S
O146        C153   1.279       .  A
O147       Cu150   2.009       .  S
O147        C152   1.277       .  A
O148       Cu150   2.009       .  S
O148        C151   1.278       .  A
Cu149      Cu150   2.375   1_545  S
C151        C758   1.467       .  S
C152       C1064   1.471       .  S
C153        C725   1.471       .  S
C154        C740   1.469       .  S
O155       Cu163   2.012       .  S
O155        C165   1.278       .  A
O156       Cu163   2.006       .  S
O156        C166   1.277       .  A
O157       Cu163   2.009       .  S
O157        C167   1.278       .  A
O158       Cu163   2.010       .  S
O158        C168   1.278       .  A
O159       Cu164   2.009       .  S
O159        C168   1.278       .  A
O160       Cu164   2.009       .  S
O160        C167   1.277       .  A
O161       Cu164   2.016       .  S
O161        C166   1.278       .  A
O162       Cu164   2.002       .  S
O162        C165   1.277       .  A
Cu163      Cu164   2.376       .  S
C165        C743   1.468       .  S
C166        C722   1.472       .  S
C167        C704   1.467       .  S
C168        C992   1.470       .  S
O169       Cu177   2.006   1_545  S
O169        C179   1.277       .  A
O170       Cu177   2.012   1_655  S
O170        C180   1.278       .  A
O171       Cu177   2.009       .  S
O171        C181   1.278       .  A
O172       Cu177   2.010       .  S
O172        C182   1.277       .  A
O173       Cu178   2.007       .  S
O173        C182   1.277   1_645  A
O174       Cu178   2.006       .  S
O174        C181   1.277   1_645  A
O175       Cu178   2.002   1_565  S
O175        C180   1.277       .  A
O176       Cu178   2.013   1_455  S
O176        C179   1.278       .  A
Cu177      Cu178   2.376   1_465  S
C179        C668   1.471       .  S
C180        C650   1.468       .  S
C181        C686   1.469       .  S
C182        C830   1.466       .  S
O183       Cu191   2.013       .  S
O183        C193   1.278   1_655  A
O184       Cu191   2.010       .  S
O184        C194   1.278   1_655  A
O185       Cu191   2.005       .  S
O185        C195   1.277       .  A
O186       Cu191   2.014   1_455  S
O186        C196   1.278       .  A
O187       Cu192   2.003       .  S
O187        C196   1.277       .  A
O188       Cu192   2.010   1_655  S
O188        C195   1.277       .  A
O189       Cu192   2.008       .  S
O189        C194   1.277       .  A
O190       Cu192   2.009       .  S
O190        C193   1.278       .  A
Cu191      Cu192   2.376   1_655  S
C193        C779   1.470       .  S
C194        C632   1.470       .  S
C195        C596   1.470       .  S
C196        C617   1.470       .  S
O197       Cu205   2.006   1_545  S
O197        C207   1.277       .  A
O198       Cu205   2.012       .  S
O198        C208   1.278       .  A
O199       Cu205   2.011       .  S
O199        C209   1.278   1_565  A
O200       Cu205   2.009       .  S
O200        C210   1.277   1_565  A
O201       Cu206   2.008       .  S
O201        C210   1.277       .  A
O202       Cu206   2.008       .  S
O202        C209   1.277       .  A
O203       Cu206   2.004   1_565  S
O203        C208   1.277       .  A
O204       Cu206   2.014       .  S
O204        C207   1.278       .  A
Cu205      Cu206   2.376   1_565  S
C207        C599   1.471       .  S
C208        C614   1.469       .  S
C209        C578   1.470       .  S
C210        C761   1.467       .  S
O211       Cu219   2.006       .  S
O211        C221   1.277       .  A
O212       Cu219   2.007       .  S
O212        C222   1.277       .  A
O213       Cu219   2.013       .  S
O213        C223   1.278       .  A
O214       Cu219   2.006       .  S
O214        C224   1.277       .  A
O215       Cu220   2.014       .  S
O215        C224   1.278       .  A
O216       Cu220   2.001       .  S
O216        C223   1.277       .  A
O217       Cu220   2.007       .  S
O217        C222   1.277       .  A
O218       Cu220   2.009       .  S
O218        C221   1.277       .  A
Cu219      Cu220   2.376       .  S
C221        C560   1.469       .  S
C222        C707   1.466       .  S
C223        C653   1.468       .  S
C224        C671   1.471       .  S
O225       Cu233   2.008       .  S
O225        C235   1.277   1_565  A
O226       Cu233   2.011       .  S
O226        C236   1.278   1_565  A
O227       Cu233   2.005   1_455  S
O227        C237   1.277   1_565  A
O228       Cu233   2.014       .  S
O228        C238   1.278   1_565  A
O229       Cu234   2.004   1_655  S
O229        C238   1.277       .  A
O230       Cu234   2.011       .  S
O230        C237   1.277       .  A
O231       Cu234   2.011       .  S
O231        C236   1.278   1_455  A
O232       Cu234   2.013       .  S
O232        C235   1.278   1_455  A
Cu233      Cu234   2.375   1_665  S
C235        C545   1.468       .  S
C236        C938   1.472       .  S
C237        C524   1.469       .  S
C238        C509   1.470       .  S
O239       Cu247   2.009       .  S
O239        C249   1.277       .  A
O240       Cu247   2.009       .  S
O240        C250   1.277       .  A
O241       Cu247   2.015       .  S
O241        C251   1.278       .  A
O242       Cu247   2.005   1_655  S
O242        C252   1.278       .  A
O243       Cu248   2.010       .  S
O243        C252   1.277       .  A
O244       Cu248   2.003   1_455  S
O244        C251   1.277       .  A
O245       Cu248   2.007       .  S
O245        C250   1.277   1_655  A
O246       Cu248   2.003       .  S
O246        C249   1.277   1_655  A
Cu247      Cu248   2.376   1_455  S
C249        C887   1.468       .  S
C250        C488   1.467       .  S
C251        C470   1.470       .  S
C252        C452   1.469       .  S
O253       Cu261   2.009       .  S
O253        C263   1.277   1_565  A
O254       Cu261   2.012       .  S
O254        C264   1.278   1_565  A
O255       Cu261   2.006       .  S
O255        C265   1.277   1_565  A
O256       Cu261   2.005       .  S
O256        C266   1.277   1_565  A
O257       Cu262   2.009       .  S
O257        C266   1.277       .  A
O258       Cu262   2.008       .  S
O258        C265   1.278       .  A
O259       Cu262   2.002       .  S
O259        C264   1.276       .  A
O260       Cu262   2.010       .  S
O260        C263   1.278       .  A
Cu261      Cu262   2.376   1_565  S
C263        C506   1.471       .  S
C264        C527   1.468       .  S
C265        C866   1.468       .  S
C266        C434   1.466       .  S
O267       Cu275   2.009       .  S
O267        C277   1.277       .  A
O268       Cu275   2.006       .  S
O268        C278   1.277       .  A
O269       Cu275   2.014       .  S
O269        C279   1.278       .  A
O270       Cu275   2.003       .  S
O270        C280   1.277       .  A
O271       Cu276   2.013       .  S
O271        C280   1.278       .  A
O272       Cu276   2.003       .  S
O272        C279   1.277       .  A
O273       Cu276   2.012       .  S
O273        C278   1.278       .  A
O274       Cu276   2.011       .  S
O274        C277   1.278       .  A
Cu275      Cu276   2.376       .  S
C277        C851   1.470       .  S
C278        C419   1.467       .  S
C279        C455   1.469       .  S
C280        C473   1.470       .  S
O281       Cu289   2.007   1_455  S
O281        C291   1.277       .  A
O282       Cu289   2.012   1_565  S
O282        C292   1.278       .  A
O283       Cu289   2.008       .  S
O283        C293   1.278   1_645  A
O284       Cu289   2.008       .  S
O284        C294   1.277   1_655  A
O285       Cu290   2.009       .  S
O285        C294   1.277   1_565  A
O286       Cu290   2.011       .  S
O286        C293   1.278       .  A
O287       Cu290   2.002   1_655  S
O287        C292   1.277       .  A
O288       Cu290   2.012   1_545  S
O288        C291   1.278       .  A
Cu289      Cu290   2.376   1_645  S
C291        C401   1.470       .  S
C292        C380   1.469       .  S
C293        C689   1.470   1_455  S
C294        C542   1.467   1_455  S
O295       Cu303   2.006   1_455  S
O295        C305   1.277       .  A
O296       Cu303   2.010       .  S
O296        C306   1.277       .  A
O297       Cu303   2.010       .  S
O297        C307   1.278   1_655  A
O298       Cu303   2.009       .  S
O298        C308   1.278   1_655  A
O299       Cu304   2.008       .  S
O299        C308   1.277       .  A
O300       Cu304   2.005       .  S
O300        C307   1.277       .  A
O301       Cu304   2.004   1_655  S
O301        C306   1.277       .  A
O302       Cu304   2.015       .  S
O302        C305   1.279       .  A
Cu303      Cu304   2.376   1_655  S
C305        C362   1.472       .  S
C306        C347   1.468       .  S
C307        C635   1.469       .  S
C308        C491   1.467       .  S
O309       Cu317   2.008       .  S
O309        C319   1.278   1_565  A
O310       Cu317   2.008       .  S
O310        C320   1.277   1_565  A
O311       Cu317   2.011   1_545  S
O311        C321   1.278       .  A
O312       Cu317   2.006       .  S
O312        C322   1.277       .  A
O313       Cu318   2.012   1_565  S
O313        C322   1.278       .  A
O314       Cu318   2.004       .  S
O314        C321   1.277       .  A
O315       Cu318   2.009       .  S
O315        C320   1.277       .  A
O316       Cu318   2.012       .  S
O316        C319   1.278       .  A
Cu317      Cu318   2.376   1_565  S
C319        C581   1.471       .  S
C320        C437   1.467       .  S
C321        C344   1.469       .  S
C322        C365   1.471       .  S
O323       Cu331   2.011       .  S
O323        C333   1.277       .  A
O324       Cu331   2.009       .  S
O324        C334   1.278       .  A
O325       Cu331   2.006       .  S
O325        C335   1.277       .  A
O326       Cu331   2.010       .  S
O326        C336   1.278       .  A
O327       Cu332   2.006       .  S
O327        C336   1.277       .  A
O328       Cu332   2.013       .  S
O328        C335   1.278       .  A
O329       Cu332   2.007       .  S
O329        C334   1.277       .  A
O330       Cu332   2.004       .  S
O330        C333   1.277       .  A
Cu331      Cu332   2.376       .  S
C333        C416   1.466       .  S
C334        C563   1.469       .  S
C335        C383   1.470       .  S
C336        C398   1.470       .  S
C337        C342   1.385       .  A
C337        C338   1.402       .  A
C337        N343   1.342       .  A
C338        C339   1.401       .  A
C338        H349   1.082       .  S
C339        C348   1.375       .  A
C339        C340   1.385       .  A
C340        C341   1.403       .  A
C340        N346   1.343       .  A
C341        C342   1.402       .  A
C341        H350   1.082       .  S
C342        C345   1.377       .  A
N343        C344   1.355       .  A
N343        H353   1.045       .  S
C344        C345   1.395       .  A
C345        H351   1.082       .  S
N346        C347   1.355       .  A
N346        H354   1.045       .  S
C347        C348   1.394       .  A
C348        H352   1.082       .  S
C355        C360   1.384       .  A
C355        C356   1.404       .  A
C355        N361   1.343       .  A
C356        C357   1.402       .  A
C356        H367   1.082       .  S
C357        C366   1.378       .  A
C357        C358   1.385       .  A
C358        C359   1.404       .  A
C358        N364   1.343       .  A
C359        C360   1.403       .  A
C359        H368   1.082       .  S
C360        C363   1.379       .  A
N361        C362   1.356       .  A
N361        H371   1.045       .  S
C362        C363   1.396       .  A
C363        H369   1.082       .  S
N364        C365   1.356       .  A
N364        H372   1.045       .  S
C365        C366   1.395       .  A
C366        H370   1.082       .  S
C373        C378   1.385       .  A
C373        C374   1.402       .  A
C373        N379   1.342       .  A
C374        C375   1.401       .  A
C374        H385   1.082       .  S
C375        C384   1.377       .  A
C375        C376   1.385       .  A
C376        C377   1.404       .  A
C376        N382   1.343       .  A
C377        C378   1.403       .  A
C377        H386   1.082       .  S
C378        C381   1.379       .  A
N379        C380   1.355       .  A
N379        H389   1.045       .  S
C380        C381   1.395       .  A
C381        H387   1.082       .  S
N382        C383   1.356       .  A
N382        H390   1.045       .  S
C383        C384   1.394       .  A
C384        H388   1.082       .  S
C391        C396   1.385       .  A
C391        C392   1.404       .  A
C391        N397   1.343       .  A
C392        C393   1.403       .  A
C392        H403   1.082       .  S
C393        C402   1.379       .  A
C393        C394   1.385       .  A
C394        C395   1.402       .  A
C394        N400   1.342       .  A
C395        C396   1.401       .  A
C395        H404   1.082       .  S
C396        C399   1.377       .  A
N397        C398   1.356       .  A
N397        H407   1.045       .  S
C398        C399   1.394       .  A
C399        H405   1.082       .  S
N400        C401   1.355       .  A
N400        H408   1.045       .  S
C401        C402   1.396       .  A
C402        H406   1.082       .  S
C409        C414   1.385       .  A
C409        C410   1.403       .  A
C409        N415   1.344       .  A
C410        C411   1.403       .  A
C410        H421   1.082       .  S
C411        C420   1.377       .  A
C411        C412   1.385       .  A
C412        C413   1.402       .  A
C412        N418   1.343       .  A
C413        C414   1.401       .  A
C413        H422   1.082       .  S
C414        C417   1.376       .  A
N415        C416   1.355       .  A
N415        H425   1.044       .  S
C416        C417   1.393       .  A
C417        H423   1.082       .  S
N418        C419   1.354       .  A
N418        H426   1.044       .  S
C419        C420   1.394       .  A
C420        H424   1.082       .  S
C427        C432   1.385   1_545  A
C427        C428   1.403       .  A
C427        N433   1.343       .  A
C428        C429   1.402       .  A
C428        H439   1.082       .  S
C429        C438   1.377       .  A
C429        C430   1.385   1_545  A
C430        C431   1.403       .  A
C430        N436   1.343       .  A
C431        C432   1.402       .  A
C431        H440   1.082       .  S
C432        C435   1.377       .  A
N433        C434   1.354       .  A
N433        H443   1.045       .  S
C434        C435   1.394   1_545  A
C435        H441   1.082       .  S
N436        C437   1.355   1_565  A
N436        H444   1.045       .  S
C437        C438   1.394       .  A
C438        H442   1.082       .  S
C445        C450   1.385       .  A
C445        C446   1.404       .  A
C445        N451   1.344       .  A
C446        C447   1.403       .  A
C446        H457   1.082       .  S
C447        C456   1.378       .  A
C447        C448   1.385       .  A
C448        C449   1.401       .  A
C448        N454   1.342       .  A
C449        C450   1.400       .  A
C449        H458   1.082       .  S
C450        C453   1.375       .  A
N451        C452   1.356       .  A
N451        H461   1.045       .  S
C452        C453   1.393       .  A
C453        H459   1.082       .  S
N454        C455   1.354       .  A
N454        H462   1.045       .  S
C455        C456   1.396       .  A
C456        H460   1.082       .  S
C463        C468   1.385       .  A
C463        C464   1.403       .  A
C463        N469   1.344       .  A
C464        C465   1.403       .  A
C464        H475   1.082       .  S
C465        C474   1.378       .  A
C465        C466   1.385       .  A
C466        C467   1.402       .  A
C466        N472   1.343       .  A
C467        C468   1.402       .  A
C467        H476   1.082       .  S
C468        C471   1.377       .  A
N469        C470   1.355       .  A
N469        H479   1.045       .  S
C470        C471   1.395       .  A
C471        H477   1.082       .  S
N472        C473   1.355       .  A
N472        H480   1.045       .  S
C473        C474   1.396       .  A
C474        H478   1.082       .  S
C481        C486   1.385       .  A
C481        C482   1.402       .  A
C481        N487   1.343       .  A
C482        C483   1.401       .  A
C482        H493   1.082       .  S
C483        C492   1.377       .  A
C483        C484   1.385       .  A
C484        C485   1.404       .  A
C484        N490   1.343       .  A
C485        C486   1.403       .  A
C485        H494   1.082       .  S
C486        C489   1.378       .  A
N487        C488   1.354       .  A
N487        H497   1.045       .  S
C488        C489   1.394       .  A
C489        H495   1.082       .  S
N490        C491   1.355       .  A
N490        H498   1.045       .  S
C491        C492   1.393       .  A
C492        H496   1.082   1_455  S
C499        C504   1.385   1_565  A
C499        C500   1.404       .  A
C499        N505   1.344       .  A
C500        C501   1.403       .  A
C500        H511   1.082       .  S
C501        C510   1.378       .  A
C501        C502   1.384   1_565  A
C502        C503   1.403       .  A
C502        N508   1.343       .  A
C503        C504   1.402       .  A
C503        H512   1.082       .  S
C504        C507   1.377       .  A
N505        C506   1.356   1_565  A
N505        H515   1.044       .  S
C506        C507   1.395       .  A
C507        H513   1.082       .  S
N508        C509   1.356       .  A
N508        H516   1.044       .  S
C509        C510   1.395   1_545  A
C510        H514   1.082       .  S
C517        C522   1.385   1_545  A
C517        C518   1.404       .  A
C517        N523   1.344       .  A
C518        C519   1.403       .  A
C518        H529   1.082       .  S
C519        C528   1.377       .  A
C519        C520   1.385   1_545  A
C520        C521   1.401       .  A
C520        N526   1.342       .  A
C521        C522   1.400       .  A
C521        H530   1.082       .  S
C522        C525   1.375       .  A
N523        C524   1.356       .  A
N523        H533   1.045       .  S
C524        C525   1.394   1_545  A
C525        H531   1.082       .  S
N526        C527   1.354   1_565  A
N526        H534   1.046       .  S
C527        C528   1.396       .  A
C528        H532   1.082       .  S
C535        C540   1.385   1_465  A
C535        C536   1.402       .  A
C535        N541   1.343       .  A
C536        C537   1.402   1_455  A
C536        H547   1.082       .  S
C537        C546   1.377       .  A
C537        C538   1.385   1_565  A
C538        C539   1.404       .  A
C538        N544   1.344       .  A
C539        C540   1.403       .  A
C539        H548   1.082       .  S
C540        C543   1.378       .  A
N541        C542   1.355   1_465  A
N541        H551   1.045       .  S
C542        C543   1.395       .  A
C543        H549   1.082       .  S
N544        C545   1.355       .  A
N544        H552   1.045       .  S
C545        C546   1.394   1_545  A
C546        H550   1.082       .  S
C553        C558   1.385       .  A
C553        C554   1.402       .  A
C553        N559   1.342       .  A
C554        C555   1.401       .  A
C554        H565   1.082       .  S
C555        C564   1.377       .  A
C555        C556   1.385       .  A
C556        C557   1.404       .  A
C556        N562   1.343       .  A
C557        C558   1.403       .  A
C557        H566   1.082       .  S
C558        C561   1.378       .  A
N559        C560   1.355       .  A
N559        H569   1.045       .  S
C560        C561   1.395       .  A
C561        H567   1.082       .  S
N562        C563   1.356       .  A
N562        H570   1.045       .  S
C563        C564   1.394       .  A
C564        H568   1.082       .  S
C571        C576   1.384   1_545  A
C571        C572   1.405       .  A
C571        N577   1.344       .  A
C572        C573   1.404       .  A
C572        H583   1.082       .  S
C573        C582   1.380       .  A
C573        C574   1.385   1_545  A
C574        C575   1.402       .  A
C574        N580   1.342       .  A
C575        C576   1.401       .  A
C575        H584   1.082       .  S
C576        C579   1.377       .  A
N577        C578   1.356       .  A
N577        H587   1.045       .  S
C578        C579   1.394   1_545  A
C579        H585   1.082       .  S
N580        C581   1.355   1_565  A
N580        H588   1.045       .  S
C581        C582   1.396       .  A
C582        H586   1.082       .  S
C589        C594   1.385       .  A
C589        C590   1.403       .  A
C589        N595   1.343       .  A
C590        C591   1.403       .  A
C590        H601   1.082       .  S
C591        C600   1.378       .  A
C591        C592   1.385       .  A
C592        C593   1.403       .  A
C592        N598   1.343       .  A
C593        C594   1.402       .  A
C593        H602   1.082       .  S
C594        C597   1.377       .  A
N595        C596   1.356       .  A
N595        H605   1.045       .  S
C596        C597   1.394       .  A
C597        H603   1.082       .  S
N598        C599   1.355       .  A
N598        H606   1.045       .  S
C599        C600   1.395       .  A
C600        H604   1.082       .  S
C607        C612   1.385       .  A
C607        C608   1.403       .  A
C607        N613   1.343       .  A
C608        C609   1.402       .  A
C608        H619   1.082       .  S
C609        C618   1.377       .  A
C609        C610   1.385       .  A
C610        C611   1.403       .  A
C610        N616   1.343       .  A
C611        C612   1.402       .  A
C611        H620   1.082       .  S
C612        C615   1.377       .  A
N613        C614   1.355       .  A
N613        H623   1.045       .  S
C614        C615   1.395       .  A
C615        H621   1.082       .  S
N616        C617   1.355       .  A
N616        H624   1.045       .  S
C617        C618   1.395       .  A
C618        H622   1.082       .  S
C625        C630   1.385   1_655  A
C625        C626   1.402       .  A
C625        N631   1.342       .  A
C626        C627   1.401       .  A
C626        H637   1.082       .  S
C627        C636   1.377       .  A
C627        C628   1.385   1_655  A
C628        C629   1.403       .  A
C628        N634   1.342       .  A
C629        C630   1.402       .  A
C629        H638   1.082       .  S
C630        C633   1.378       .  A
N631        C632   1.355   1_655  A
N631        H641   1.045       .  S
C632        C633   1.395       .  A
C633        H639   1.082       .  S
N634        C635   1.355       .  A
N634        H642   1.045       .  S
C635        C636   1.394   1_455  A
C636        H640   1.082       .  S
C643        C648   1.385       .  A
C643        C644   1.402       .  A
C643        N649   1.343       .  A
C644        C645   1.401       .  A
C644        H655   1.082       .  S
C645        C654   1.375       .  A
C645        C646   1.385       .  A
C646        C647   1.402       .  A
C646        N652   1.343       .  A
C647        C648   1.402       .  A
C647        H656   1.082       .  S
C648        C651   1.376       .  A
N649        C650   1.355       .  A
N649        H659   1.045       .  S
C650        C651   1.395       .  A
C651        H657   1.082       .  S
N652        C653   1.355       .  A
N652        H660   1.045       .  S
C653        C654   1.394       .  A
C654        H658   1.082       .  S
C661        C666   1.385       .  A
C661        C662   1.403       .  A
C661        N667   1.343       .  A
C662        C663   1.402       .  A
C662        H673   1.082       .  S
C663        C672   1.377       .  A
C663        C664   1.385       .  A
C664        C665   1.404       .  A
C664        N670   1.344       .  A
C665        C666   1.403       .  A
C665        H674   1.082       .  S
C666        C669   1.378       .  A
N667        C668   1.355       .  A
N667        H677   1.045       .  S
C668        C669   1.396       .  A
C669        H675   1.082       .  S
N670        C671   1.356       .  A
N670        H678   1.045       .  S
C671        C672   1.395       .  A
C672        H676   1.082       .  S
C679        C684   1.385   1_645  A
C679        C680   1.402       .  A
C679        N685   1.342       .  A
C680        C681   1.401       .  A
C680        H691   1.082       .  S
C681        C690   1.377       .  A
C681        C682   1.385   1_645  A
C682        C683   1.403       .  A
C682        N688   1.343       .  A
C683        C684   1.402       .  A
C683        H692   1.082       .  S
C684        C687   1.378       .  A
N685        C686   1.355   1_645  A
N685        H695   1.045       .  S
C686        C687   1.395       .  A
C687        H693   1.082       .  S
N688        C689   1.356   1_455  A
N688        H696   1.045       .  S
C689        C690   1.395   1_565  A
C690        H694   1.082       .  S
C697        C702   1.385       .  A
C697        C698   1.404       .  A
C697        N703   1.344       .  A
C698        C699   1.403   1_554  A
C698        H709   1.082       .  S
C699        C708   1.378       .  A
C699        C700   1.385       .  A
C700        C701   1.401       .  A
C700        N706   1.342       .  A
C701        C702   1.401   1_556  A
C701        H710   1.082       .  S
C702        C705   1.376       .  A
N703        C704   1.356       .  A
N703        H713   1.045       .  S
C704        C705   1.393       .  A
C705        H711   1.082       .  S
N706        C707   1.354       .  A
N706        H714   1.045       .  S
C707        C708   1.395       .  A
C708        H712   1.082       .  S
C715        C720   1.384       .  A
C715        C716   1.403       .  A
C715        N721   1.342       .  A
C716        C717   1.401       .  A
C716        H727   1.082       .  S
C717        C726   1.378       .  A
C717        C718   1.384       .  A
C718        C719   1.405       .  A
C718        N724   1.344       .  A
C719        C720   1.404       .  A
C719        H728   1.082       .  S
C720        C723   1.381       .  A
N721        C722   1.355       .  A
N721        H731   1.045       .  S
C722        C723   1.397       .  A
C723        H729   1.082       .  S
N724        C725   1.357       .  A
N724        H732   1.045       .  S
C725        C726   1.394       .  A
C726        H730   1.082       .  S
C733        C738   1.385       .  A
C733        C734   1.402       .  A
C733        N739   1.342       .  A
C734        C735   1.401       .  A
C734        H745   1.082       .  S
C735        C744   1.375       .  A
C735        C736   1.385       .  A
C736        C737   1.403       .  A
C736        N742   1.343       .  A
C737        C738   1.402       .  A
C737        H746   1.082       .  S
C738        C741   1.377       .  A
N739        C740   1.355       .  A
N739        H749   1.045       .  S
C740        C741   1.395       .  A
C741        H747   1.082       .  S
N742        C743   1.355       .  A
N742        H750   1.045       .  S
C743        C744   1.394       .  A
C744        H748   1.082       .  S
C751        C756   1.385       .  A
C751        C752   1.404       .  A
C751        N757   1.344       .  A
C752        C753   1.404   1_554  A
C752        H763   1.082       .  S
C753        C762   1.379       .  A
C753        C754   1.385       .  A
C754        C755   1.401       .  A
C754        N760   1.342   1_565  A
C755        C756   1.400   1_556  A
C755        H764   1.082   1_565  S
C756        C759   1.375       .  A
N757        C758   1.356       .  A
N757        H767   1.045       .  S
C758        C759   1.392       .  A
C759        H765   1.082       .  S
N760        C761   1.354       .  A
N760        H768   1.046       .  S
C761        C762   1.395   1_545  A
C762        H766   1.082       .  S
C769        C774   1.385   1_455  A
C769        C770   1.403       .  A
C769        N775   1.343       .  A
C770        C771   1.402   1_554  A
C770        H781   1.082       .  S
C771        C780   1.377       .  A
C771        C772   1.385   1_455  A
C772        C773   1.403       .  A
C772        N778   1.344       .  A
C773        C774   1.403   1_556  A
C773        H782   1.082       .  S
C774        C777   1.377       .  A
N775        C776   1.354       .  A
N775        H785   1.045       .  S
C776        C777   1.394   1_455  A
C777        H783   1.082       .  S
N778        C779   1.355   1_655  A
N778        H786   1.045       .  S
C779        C780   1.394       .  A
C780        H784   1.082       .  S
C787        C792   1.385   1_455  A
C787        C788   1.402       .  A
C787        N793   1.341       .  A
C788        C789   1.400       .  A
C788        H799   1.082       .  S
C789        C798   1.376       .  A
C789        C790   1.385   1_455  A
C790        C791   1.404       .  A
C790        N796   1.343       .  A
C791        C792   1.403       .  A
C791        H800   1.082       .  S
C792        C795   1.379       .  A
N793        C794   1.355       .  A
N793        H803   1.045       .  S
C794        C795   1.395   1_455  A
C795        H801   1.082       .  S
N796        C797   1.356   1_655  A
N796        H804   1.045       .  S
C797        C798   1.394       .  A
C798        H802   1.082       .  S
C805        C810   1.384   1_455  A
C805        C806   1.404       .  A
C805        N811   1.344       .  A
C806        C807   1.403       .  A
C806        H817   1.082       .  S
C807        C816   1.379       .  A
C807        C808   1.385   1_455  A
C808        C809   1.403       .  A
C808        N814   1.343       .  A
C809        C810   1.402       .  A
C809        H818   1.082       .  S
C810        C813   1.378       .  A
N811        C812   1.356       .  A
N811        H821   1.045       .  S
C812        C813   1.395   1_455  A
C813        H819   1.082       .  S
N814        C815   1.355   1_655  A
N814        H822   1.045       .  S
C815        C816   1.396       .  A
C816        H820   1.082       .  S
C823        C828   1.385   1_655  A
C823        C824   1.402       .  A
C823        N829   1.343       .  A
C824        C825   1.402   1_556  A
C824        H835   1.082       .  S
C825        C834   1.377       .  A
C825        C826   1.385   1_655  A
C826        C827   1.403   1_565  A
C826        N832   1.343   1_565  A
C827        C828   1.402   1_544  A
C827        H836   1.082       .  S
C828        C831   1.378       .  A
N829        C830   1.354   1_655  A
N829        H839   1.045       .  S
C830        C831   1.394       .  A
C831        H837   1.082   1_565  S
N832        C833   1.355   1_545  A
N832        H840   1.045       .  S
C833        C834   1.394   1_455  A
C834        H838   1.082       .  S
C841        C846   1.385       .  A
C841        C842   1.405       .  A
C841        N847   1.345       .  A
C842        C843   1.404       .  A
C842        H853   1.082       .  S
C843        C852   1.379       .  A
C843        C844   1.385       .  A
C844        C845   1.402       .  A
C844        N850   1.343       .  A
C845        C846   1.402       .  A
C845        H854   1.082       .  S
C846        C849   1.377       .  A
N847        C848   1.357       .  A
N847        H857   1.044       .  S
C848        C849   1.394       .  A
C849        H855   1.082       .  S
N850        C851   1.355       .  A
N850        H858   1.044       .  S
C851        C852   1.395       .  A
C852        H856   1.082       .  S
C859        C864   1.385   1_565  A
C859        C860   1.402       .  A
C859        N865   1.342       .  A
C860        C861   1.401       .  A
C860        H871   1.082       .  S
C861        C870   1.377       .  A
C861        C862   1.385   1_565  A
C862        C863   1.403       .  A
C862        N868   1.343       .  A
C863        C864   1.402       .  A
C863        H872   1.082       .  S
C864        C867   1.377       .  A
N865        C866   1.355   1_565  A
N865        H875   1.044       .  S
C866        C867   1.395       .  A
C867        H873   1.082       .  S
N868        C869   1.356   1_545  A
N868        H876   1.044       .  S
C869        C870   1.394       .  A
C870        H874   1.082       .  S
C877        C882   1.385   1_455  A
C877        C878   1.403       .  A
C877        N883   1.342       .  A
C878        C879   1.402       .  A
C878        H889   1.082       .  S
C879        C888   1.378       .  A
C879        C880   1.385   1_455  A
C880        C881   1.402       .  A
C880        N886   1.341       .  A
C881        C882   1.401       .  A
C881        H890   1.082       .  S
C882        C885   1.377       .  A
N883        C884   1.355   1_455  A
N883        H893   1.044       .  S
C884        C885   1.395       .  A
C885        H891   1.082       .  S
N886        C887   1.355   1_655  A
N886        H894   1.045       .  S
C887        C888   1.395       .  A
C888        H892   1.082       .  S
C895        C900   1.385       .  A
C895        C896   1.404       .  A
C895        N901   1.344       .  A
C896        C897   1.403       .  A
C896        H907   1.082       .  S
C897        C906   1.379       .  A
C897        C898   1.385       .  A
C898        C899   1.402       .  A
C898        N904   1.342       .  A
C899        C900   1.401       .  A
C899        H908   1.082       .  S
C900        C903   1.376       .  A
N901        C902   1.356       .  A
N901        H911   1.045       .  S
C902        C903   1.395       .  A
C903        H909   1.082       .  S
N904        C905   1.355       .  A
N904        H912   1.045       .  S
C905        C906   1.396       .  A
C906        H910   1.082       .  S
C913        C918   1.385       .  A
C913        C914   1.405       .  A
C913        N919   1.344       .  A
C914        C915   1.404       .  A
C914        H925   1.082       .  S
C915        C924   1.379       .  A
C915        C916   1.385       .  A
C916        C917   1.401       .  A
C916        N922   1.341       .  A
C917        C918   1.400       .  A
C917        H926   1.082       .  S
C918        C921   1.375       .  A
N919        C920   1.356       .  A
N919        H929   1.045       .  S
C920        C921   1.393       .  A
C921        H927   1.082       .  S
N922        C923   1.354       .  A
N922        H930   1.045       .  S
C923        C924   1.396       .  A
C924        H928   1.082       .  S
C931        C936   1.384   1_665  A
C931        C932   1.404       .  A
C931        N937   1.343       .  A
C932        C933   1.402       .  A
C932        H943   1.082       .  S
C933        C942   1.378       .  A
C933        C934   1.385   1_665  A
C934        C935   1.403       .  A
C934        N940   1.343       .  A
C935        C936   1.402       .  A
C935        H944   1.082       .  S
C936        C939   1.378       .  A
N937        C938   1.356   1_565  A
N937        H947   1.044       .  S
C938        C939   1.395   1_655  A
C939        H945   1.082       .  S
N940        C941   1.355   1_445  A
N940        H948   1.044       .  S
C941        C942   1.395       .  A
C942        H946   1.082       .  S
C949        C954   1.385   1_545  A
C949        C950   1.400       .  A
C949        N955   1.340       .  A
C950        C951   1.399       .  A
C950        H961   1.082       .  S
C951        C960   1.374       .  A
C951        C952   1.384   1_545  A
C952        C953   1.406       .  A
C952        N958   1.345       .  A
C953        C954   1.406       .  A
C953        H962   1.082       .  S
C954        C957   1.382       .  A
N955        C956   1.354   1_545  A
N955        H965   1.046       .  S
C956        C957   1.398       .  A
C957        H963   1.082       .  S
N958        C959   1.357       .  A
N958        H966   1.046       .  S
C959        C960   1.393   1_565  A
C960        H964   1.082       .  S
C967        C972   1.384   1_545  A
C967        C968   1.406       .  A
C967        N973   1.346       .  A
C968        C969   1.406       .  A
C968        H979   1.082       .  S
C969        C978   1.381       .  A
C969        C970   1.385   1_545  A
C970        C971   1.399       .  A
C970        N976   1.340       .  A
C971        C972   1.398       .  A
C971        H980   1.082       .  S
C972        C975   1.373       .  A
N973        C974   1.358       .  A
N973        H983   1.045       .  S
C974        C975   1.392   1_545  A
C975        H981   1.082       .  S
N976        C977   1.354   1_565  A
N976        H984   1.045       .  S
C977        C978   1.397       .  A
C978        H982   1.082       .  S
C985        C990   1.385       .  A
C985        C986   1.402       .  A
C985        N991   1.343       .  A
C986        C987   1.402       .  A
C986        H997   1.082       .  S
C987        C996   1.377       .  A
C987        C988   1.385       .  A
C988        C989   1.403       .  A
C988        N994   1.343       .  A
C989        C990   1.403       .  A
C989        H998   1.082       .  S
C990        C993   1.378       .  A
N991        C992   1.355       .  A
N991       H1001   1.045       .  S
C992        C993   1.395       .  A
C993        H999   1.082       .  S
N994        C995   1.356       .  A
N994       H1002   1.045       .  S
C995        C996   1.394       .  A
C996       H1000   1.082       .  S
C1003      C1008   1.385       .  A
C1003      C1004   1.403       .  A
C1003      N1009   1.343       .  A
C1004      C1005   1.402       .  A
C1004      H1015   1.082       .  S
C1005      C1014   1.377       .  A
C1005      C1006   1.385       .  A
C1006      C1007   1.403       .  A
C1006      N1012   1.344       .  A
C1007      C1008   1.402       .  A
C1007      H1016   1.082       .  S
C1008      C1011   1.377       .  A
N1009      C1010   1.354       .  A
N1009      H1019   1.045       .  S
C1010      C1011   1.393       .  A
C1011      H1017   1.082       .  S
N1012      C1013   1.355       .  A
N1012      H1020   1.045       .  S
C1013      C1014   1.395       .  A
C1014      H1018   1.082       .  S
C1021      C1026   1.385       .  A
C1021      C1022   1.402       .  A
C1021      N1027   1.343       .  A
C1022      C1023   1.402       .  A
C1022      H1033   1.082       .  S
C1023      C1032   1.377       .  A
C1023      C1024   1.385       .  A
C1024      C1025   1.402       .  A
C1024      N1030   1.342       .  A
C1025      C1026   1.402       .  A
C1025      H1034   1.083       .  S
C1026      C1029   1.376       .  A
N1027      C1028   1.355       .  A
N1027      H1037   1.045       .  S
C1028      C1029   1.395       .  A
C1029      H1035   1.082       .  S
N1030      C1031   1.355       .  A
N1030      H1038   1.045       .  S
C1031      C1032   1.395       .  A
C1032      H1036   1.082       .  S
C1039      C1044   1.385       .  A
C1039      C1040   1.403       .  A
C1039      N1045   1.342       .  A
C1040      C1041   1.401       .  A
C1040      H1051   1.082       .  S
C1041      C1050   1.378       .  A
C1041      C1042   1.384       .  A
C1042      C1043   1.405       .  A
C1042      N1048   1.344       .  A
C1043      C1044   1.404       .  A
C1043      H1052   1.082       .  S
C1044      C1047   1.381       .  A
N1045      C1046   1.355       .  A
N1045      H1055   1.045       .  S
C1046      C1047   1.397       .  A
C1047      H1053   1.082       .  S
N1048      C1049   1.357       .  A
N1048      H1056   1.045       .  S
C1049      C1050   1.394       .  A
C1050      H1054   1.082       .  S
C1057      C1062   1.385   1_565  A
C1057      C1058   1.404       .  A
C1057      N1063   1.344       .  A
C1058      C1059   1.403       .  A
C1058      H1069   1.082       .  S
C1059      C1068   1.378       .  A
C1059      C1060   1.385   1_565  A
C1060      C1061   1.403       .  A
C1060      N1066   1.343       .  A
C1061      C1062   1.402       .  A
C1061      H1070   1.082       .  S
C1062      C1065   1.377       .  A
N1063      C1064   1.356       .  A
N1063      H1073   1.044       .  S
C1064      C1065   1.395   1_565  A
C1065      H1071   1.082       .  S
N1066      C1067   1.355   1_545  A
N1066      H1074   1.044       .  S
C1067      C1068   1.395       .  A
C1068      H1072   1.082       .  S
C1075      C1080   1.385   1_565  A
C1075      C1076   1.404       .  A
C1075      N1081   1.343       .  A
C1076      C1077   1.403       .  A
C1076      H1087   1.082       .  S
C1077      C1086   1.379       .  A
C1077      C1078   1.385   1_565  A
C1078      C1079   1.403       .  A
C1078      N1084   1.343       .  A
C1079      C1080   1.402       .  A
C1079      H1088   1.082       .  S
C1080      C1083   1.378       .  A
N1081      C1082   1.355       .  A
N1081      H1091   1.045       .  S
C1082      C1083   1.395   1_565  A
C1083      H1089   1.082       .  S
N1084      C1085   1.355   1_545  A
N1084      H1092   1.045       .  S
C1085      C1086   1.395       .  A
C1086      H1090   1.082       .  S
C1093      C1098   1.385   1_655  A
C1093      C1094   1.403       .  A
C1093      N1099   1.342       .  A
C1094      C1095   1.402       .  A
C1094      H1105   1.082       .  S
C1095      C1104   1.378       .  A
C1095      C1096   1.385   1_655  A
C1096      C1097   1.403       .  A
C1096      N1102   1.342       .  A
C1097      C1098   1.402       .  A
C1097      H1106   1.082       .  S
C1098      C1101   1.377       .  A
N1099      C1100   1.355   1_655  A
N1099      H1109   1.045       .  S
C1100      C1101   1.395       .  A
C1101      H1107   1.082       .  S
N1102      C1103   1.355   1_455  A
N1102      H1110   1.045       .  S
C1103      C1104   1.395       .  A
C1104      H1108   1.082       .  S
C1111      C1116   1.385   1_655  A
C1111      C1112   1.403       .  A
C1111      N1117   1.344       .  A
C1112      C1113   1.403       .  A
C1112      H1123   1.082       .  S
C1113      C1122   1.378       .  A
C1113      C1114   1.385   1_655  A
C1114      C1115   1.403       .  A
C1114      N1120   1.344       .  A
C1115      C1116   1.403       .  A
C1115      H1124   1.082       .  S
C1116      C1119   1.377       .  A
N1117      C1118   1.355       .  A
N1117      H1127   1.044       .  S
C1118      C1119   1.394   1_655  A
C1119      H1125   1.082       .  S
N1120      C1121   1.355   1_455  A
N1120      H1128   1.044       .  S
C1121      C1122   1.394       .  A
C1122      H1126   1.082       .  S
C1129      C1134   1.384   1_655  A
C1129      C1130   1.404       .  A
C1129      N1135   1.344       .  A
C1130      C1131   1.404       .  A
C1130      H1141   1.082       .  S
C1131      C1140   1.379       .  A
C1131      C1132   1.385   1_655  A
C1132      C1133   1.403       .  A
C1132      N1138   1.343       .  A
C1133      C1134   1.402       .  A
C1133      H1142   1.082       .  S
C1134      C1137   1.378       .  A
N1135      C1136   1.356       .  A
N1135      H1145   1.045       .  S
C1136      C1137   1.395   1_655  A
C1137      H1143   1.082       .  S
N1138      C1139   1.355   1_455  A
N1138      H1146   1.045       .  S
C1139      C1140   1.396       .  A
C1140      H1144   1.082       .  S
C1147      C1152   1.385   1_455  A
C1147      C1148   1.402       .  A
C1147      N1153   1.342       .  A
C1148      C1149   1.401       .  A
C1148      H1159   1.082       .  S
C1149      C1158   1.377       .  A
C1149      C1150   1.385   1_455  A
C1150      C1151   1.403       .  A
C1150      N1156   1.342       .  A
C1151      C1152   1.401       .  A
C1151      H1160   1.082       .  S
C1152      C1155   1.377       .  A
N1153      C1154   1.355   1_455  A
N1153      H1163   1.045       .  S
C1154      C1155   1.395       .  A
C1155      H1161   1.082       .  S
N1156      C1157   1.355       .  A
N1156      H1164   1.045       .  S
C1157      C1158   1.394   1_655  A
C1158      H1162   1.082       .  S
C1165      C1170   1.385   1_445  A
C1165      C1166   1.404       .  A
C1165      N1171   1.343       .  A
C1166      C1167   1.403       .  A
C1166      H1177   1.082       .  S
C1167      C1176   1.378       .  A
C1167      C1168   1.385   1_445  A
C1168      C1169   1.401       .  A
C1168      N1174   1.342       .  A
C1169      C1170   1.401       .  A
C1169      H1178   1.082       .  S
C1170      C1173   1.376       .  A
N1171      C1172   1.356   1_445  A
N1171      H1181   1.045       .  S
C1172      C1173   1.394       .  A
C1173      H1179   1.082       .  S
N1174      C1175   1.354   1_665  A
N1174      H1182   1.045       .  S
C1175      C1176   1.395       .  A
C1176      H1180   1.082       .  S
C1183      C1188   1.385   1_445  A
C1183      C1184   1.402       .  A
C1183      N1189   1.343       .  A
C1184      C1185   1.402       .  A
C1184      H1195   1.082       .  S
C1185      C1194   1.377       .  A
C1185      C1186   1.385   1_445  A
C1186      C1187   1.404       .  A
C1186      N1192   1.344       .  A
C1187      C1188   1.403       .  A
C1187      H1196   1.082       .  S
C1188      C1191   1.378       .  A
N1189      C1190   1.354   1_445  A
N1189      H1199   1.045       .  S
C1190      C1191   1.393       .  A
C1191      H1197   1.082       .  S
N1192      C1193   1.356       .  A
N1192      H1200   1.045       .  S
C1193      C1194   1.394   1_665  A
C1194      H1198   1.082       .  S
