geometry optimzed in LAMMPS
_audit_creation_date              2020-11-30 
_audit_creation_method            'lammps2cif' 
_symmetry_space_group_name_H-M    'P1' 
_symmetry_Int_Tables_number       1 
_symmetry_cell_setting            triclinic 
loop_ 
_symmetry_equiv_pos_as_xyz 
  x,y,z 
_cell_length_a                    43.39092079 
_cell_length_b                    43.30777106352501 
_cell_length_c                    32.60605497185823 
_cell_angle_alpha                 90.0067148332805 
_cell_angle_beta                  90.00795028122879 
_cell_angle_gamma                 120.039505953005 
loop_ 
_atom_site_label 
_atom_site_type_symbol 
_atom_site_fract_x 
_atom_site_fract_y 
_atom_site_fract_z 
_atom_site_charge 
O1          O  0.46806520  0.44004483  0.33581538    -0.72400
O2          O  0.05687606  0.02733312  0.33736149    -0.72600
O3          O  0.01205966  0.48378286  0.39466286    -0.72500
O4          O  0.01213552  0.48091485  0.27820719    -0.72500
O5          O  0.48543164  0.01475922  0.28028585    -0.72400
O6          O  0.48175102  0.01212055  0.39627148    -0.72500
O7          O  0.02816365  0.05642716  0.34024608    -0.72400
O8          O  0.44096579  0.47062322  0.33145444    -0.72600
V9          V  0.01168609  0.48294737  0.33639007     1.35200
V10         V  0.48407702  0.01273241  0.33826042     1.35200
C11         C  0.43936373  0.44066570  0.33268732     0.76800
C12         C  0.05740257  0.05673885  0.33889772     0.76900
C13         C  0.99646182  0.49763457  0.41351330     0.76800
C14         C  0.00050057  0.99848243  0.26031481     0.76700
O15         O  0.06153968  0.28431105  0.32820154    -0.72400
O16         O  0.47654543  0.20135687  0.33582963    -0.72600
O17         O  0.01617975  0.23899245  0.27239456    -0.72500
O18         O  0.02018103  0.24163448  0.38865114    -0.72500
O19         O  0.49157371  0.27517367  0.39086921    -0.72400
O20         O  0.48859283  0.27125766  0.27420055    -0.72500
O21         O  0.44704961  0.22970011  0.33503470    -0.72400
O22         O  0.03247638  0.31286832  0.33086801    -0.72600
V23         V  0.01771741  0.24095820  0.33051862     1.35200
V24         V  0.49090162  0.27302674  0.33258183     1.35200
C25         C  0.06190467  0.31368092  0.32894745     0.76800
C26         C  0.44709146  0.20061588  0.33692661     0.76900
C27         C  0.00145860  0.25342672  0.25303644     0.76800
C28         C  0.00549220  0.25550508  0.40913319     0.76700
O29         O  0.28613686  0.06670446  0.34115911    -0.72400
O30         O  0.19886255  0.47425935  0.33200942    -0.72600
O31         O  0.24086090  0.02105870  0.39716450    -0.72500
O32         O  0.24391690  0.02521189  0.28098364    -0.72500
O33         O  0.26979380  0.48737997  0.27496133    -0.72400
O34         O  0.27244606  0.48932203  0.39130356    -0.72500
O35         O  0.22724992  0.44502629  0.33433524    -0.72400
O36         O  0.31469368  0.03761451  0.33593317    -0.72600
V37         V  0.24292749  0.02254174  0.33903956     1.35200
V38         V  0.27055494  0.48888553  0.33311690     1.35200
C39         C  0.31532258  0.06701984  0.33788002     0.76800
C40         C  0.19801337  0.44466239  0.33325674     0.76900
C41         C  0.25741657  0.00861818  0.41662838     0.76800
C42         C  0.25638296  0.00900001  0.26090091     0.76700
O43         O  0.21919967  0.18987967  0.32797846    -0.72400
O44         O  0.30631482  0.27778990  0.32893861    -0.72600
O45         O  0.26330704  0.23300426  0.38654753    -0.72500
O46         O  0.26230525  0.23449924  0.27032034    -0.72500
O47         O  0.23285816  0.26276071  0.27178689    -0.72400
O48         O  0.23430771  0.26185865  0.38815431    -0.72500
O49         O  0.27713985  0.30645841  0.32982277    -0.72400
O50         O  0.19012055  0.21863457  0.33026104    -0.72600
V51         V  0.26223228  0.23436540  0.32844149     1.35200
V52         V  0.23419730  0.26190113  0.32994312     1.35200
C53         C  0.18982406  0.18934991  0.32895666     0.76800
C54         C  0.30655911  0.30708494  0.33011392     0.76900
C55         C  0.24879163  0.24697871  0.40714357     0.76800
C56         C  0.24727564  0.24871405  0.25111775     0.76700
O57         O  0.46798264  0.02760519  0.00612271    -0.72400
O58         O  0.05429570  0.02707100  0.00616458    -0.72600
O59         O  0.00994287  0.02475859  0.94739631    -0.72500
O60         O  0.00838696  0.02355241  0.06372433    -0.72500
O61         O  0.48427234  0.46871665  0.05873251    -0.72400
O62         O  0.48400957  0.47048609  0.94273960    -0.72500
O63         O  0.02599194  0.46715474  0.00129272    -0.72400
O64         O  0.43966388  0.46787640  0.00140699    -0.72600
V65         V  0.00868658  0.02310032  0.00555464     1.35200
V66         V  0.48468286  0.47076125  0.00078587     1.35200
C67         C  0.43806930  0.49619989  0.00114532     0.75600
C68         C  0.05522512  0.49620586  0.00300768     0.76900
C69         C  0.99619742  0.99595488  0.92725627     0.76800
C70         C  0.99583567  0.99450813  0.08331411     0.76700
O71         O  0.01296106  0.27717840  0.93789513    -0.72400
O72         O  0.01435382  0.28165458  0.05402714    -0.72600
O73         O  0.05666207  0.27828691  0.99637060    -0.72500
O74         O  0.46687358  0.27301956  0.99541919    -0.72500
O75         O  0.43696675  0.21523559  0.99986081    -0.72400
O76         O  0.02674810  0.22046899  0.99867635    -0.72500
O77         O  0.48108096  0.21658472  0.05891099    -0.72400
O78         O  0.47924126  0.21213025  0.94225309    -0.72600
V79         V  0.01304908  0.27833022  0.99597535     1.35200
V80         V  0.48073538  0.21536662  0.00050148     1.35200
C81         C  0.99758530  0.24761116  0.91919004     0.76800
C82         C  0.99992135  0.25357444  0.07539455     0.76900
C83         C  0.05643876  0.24901259  0.99674677     0.76800
C84         C  0.43722873  0.24442754  0.99632550     0.76700
O85         O  0.27524650  0.46650117  0.00032847    -0.72400
O86         O  0.18842230  0.46754840  0.00047609    -0.72600
O87         O  0.23164498  0.46702779  0.94198764    -0.72500
O88         O  0.23227819  0.46725624  0.05844576    -0.72500
O89         O  0.26167452  0.03034741  0.06336611    -0.72400
O90         O  0.26601442  0.02852047  0.94716594    -0.72500
O91         O  0.22073253  0.03071925  0.00176297    -0.72400
O92         O  0.30678371  0.02821159  0.00893899    -0.72600
V93         V  0.23242708  0.46818408  0.00025952     1.35200
V94         V  0.26322705  0.02836480  0.00527115     1.35200
C95         C  0.30470107  0.49527385  0.00250253     0.76800
C96         C  0.18831087  0.49664854  0.99888555     0.76900
C97         C  0.24693661  0.49599199  0.92214477     0.76800
C98         C  0.24662095  0.49616228  0.07836237     0.76700
O99         O  0.30513995  0.27644929  0.99570904    -0.72400
O100        O  0.21713879  0.27499405  0.99674081    -0.72600
O101        O  0.26122657  0.27517060  0.05421386    -0.72500
O102        O  0.26123123  0.27648147  0.93814820    -0.72500
O103        O  0.23251868  0.21858003  0.93711767    -0.72400
O104        O  0.23350241  0.21726864  0.05355918    -0.72500
O105        O  0.18884961  0.21710718  0.99645461    -0.72400
O106        O  0.27688194  0.21857500  0.99430621    -0.72600
V107        V  0.26059972  0.27463469  0.99616357     1.35200
V108        V  0.23344605  0.21898260  0.99534447     1.35200
C109        C  0.30603502  0.24774520  0.99523789     0.76800
C110        C  0.18796531  0.24581360  0.99728670     0.76900
C111        C  0.24773209  0.24608189  0.07371457     0.76800
C112        C  0.24736600  0.24783317  0.91780018     0.76700
O113        O  0.02631266  0.47258161  0.67032407    -0.72400
O114        O  0.02683432  0.05914893  0.67296477    -0.72600
O115        O  0.02274336  0.01340522  0.73106198    -0.72500
O116        O  0.02665134  0.01517824  0.61495954    -0.72500
O117        O  0.47270479  0.48972518  0.60914400    -0.72400
O118        O  0.46950295  0.48549730  0.72531595    -0.72500
O119        O  0.46913032  0.02995463  0.67240435    -0.72400
O120        O  0.46938650  0.44318014  0.66563208    -0.72600
V121        V  0.02352903  0.01379914  0.67297305     1.35200
V122        V  0.47213955  0.48806075  0.66730061     1.35200
C123        C  0.99730309  0.44327003  0.66844604     0.76800
C124        C  0.99857040  0.06078663  0.67250168     0.76900
C125        C  0.99331500  0.99872347  0.74988588     0.76800
C126        C  0.99862649  0.00272817  0.59370546     0.76700
O127        O  0.46600833  0.27821050  0.66761438    -0.72400
O128        O  0.46644113  0.19098131  0.66200605    -0.72600
O129        O  0.46487197  0.23147395  0.72317027    -0.72500
O130        O  0.46748857  0.23778575  0.60670297    -0.72500
O131        O  0.02861778  0.26637830  0.60729919    -0.72400
O132        O  0.02527708  0.26627552  0.72335927    -0.72500
O133        O  0.02717063  0.22277320  0.66631720    -0.72400
O134        O  0.02679720  0.30981866  0.66433773    -0.72600
V135        V  0.46725739  0.23510845  0.66495413     1.35200
V136        V  0.02583382  0.26572412  0.66531056     1.35200
C137        C  0.99796637  0.31031032  0.66414750     0.76800
C138        C  0.99848306  0.19337324  0.66324534     0.76900
C139        C  0.49344626  0.24620268  0.74368844     0.76800
C140        C  0.49697665  0.25298354  0.58799797     0.76700
O141        O  0.28476783  0.01472390  0.72988040    -0.72400
O142        O  0.28312268  0.01623735  0.61348620    -0.72600
O143        O  0.28442443  0.05951311  0.67311332    -0.72500
O144        O  0.27839172  0.46800779  0.66715511    -0.72500
O145        O  0.22061148  0.44115169  0.66612306    -0.72400
O146        O  0.22665465  0.03082031  0.67335997    -0.72500
O147        O  0.22316321  0.48629474  0.60830575    -0.72400
O148        O  0.22269524  0.48572066  0.72454331    -0.72600
V149        V  0.28287476  0.01496985  0.67168932     1.35200
V150        V  0.22405577  0.48652494  0.66643162     1.35200
C151        C  0.25148332  0.49970962  0.74461777     0.76800
C152        C  0.25185717  0.49860396  0.58832585     0.76900
C153        C  0.25563253  0.06014937  0.67355786     0.76800
C154        C  0.24878167  0.43936821  0.66664078     0.76700
O155        O  0.21973970  0.23385896  0.71931086    -0.72400
O156        O  0.22322898  0.23400550  0.60341452    -0.72600
O157        O  0.22287146  0.19104539  0.66258071    -0.72500
O158        O  0.22011628  0.27696284  0.66026194    -0.72500
O159        O  0.27792208  0.30722535  0.66213252    -0.72400
O160        O  0.28058580  0.22118996  0.66467474    -0.72500
O161        O  0.28089077  0.26418211  0.60528216    -0.72400
O162        O  0.27738781  0.26417449  0.72171055    -0.72600
V163        V  0.22263289  0.23457512  0.66141445     1.35200
V164        V  0.27811584  0.26364462  0.66345733     1.35200
C165        C  0.24786951  0.24865921  0.74041883     0.76800
C166        C  0.25255759  0.24893760  0.58440870     0.76900
C167        C  0.25212219  0.19137961  0.66366944     0.76800
C168        C  0.24859766  0.30672456  0.66040847     0.76700
C169        C  0.24758940  0.40488763  0.66535697    -0.06700
C170        C  0.27310006  0.40241545  0.64136786    -0.17900
C171        C  0.27300885  0.37030283  0.63761731     0.10500
C172        C  0.24758140  0.34009888  0.65947393    -0.06700
C173        C  0.22157461  0.34229816  0.68279289    -0.17900
C174        C  0.22146096  0.37439464  0.68626990     0.10500
S175        S  0.30476225  0.36918649  0.60282323    -0.32900
S176        S  0.18867269  0.37509433  0.71964362    -0.32900
H177        H  0.21189788  0.40899589  0.73618146     0.28500
H178        H  0.28160234  0.33437988  0.58857474     0.28500
H179        H  0.29268250  0.42547562  0.62440239     0.19100
H180        H  0.20206253  0.31921519  0.69977522     0.19100
C181        C  0.25532650  0.09405572  0.67259346    -0.06700
C182        C  0.22653827  0.09417559  0.65312958    -0.17900
C183        C  0.22537260  0.12557032  0.64838873     0.10500
C184        C  0.25311793  0.15782756  0.66468991    -0.06700
C185        C  0.28200352  0.15778532  0.68409684    -0.17900
C186        C  0.28326559  0.12633809  0.68859765     0.10500
S187        S  0.18876017  0.12272034  0.61911416    -0.32900
S188        S  0.32022722  0.12904940  0.71691726    -0.32900
H189        H  0.29927602  0.09721952  0.73876713     0.28500
H190        H  0.21002190  0.15426845  0.59687195     0.28500
H191        H  0.20525683  0.06975409  0.64003884     0.19100
H192        H  0.30327641  0.18224826  0.69710918     0.19100
C193        C  0.99702360  0.40906146  0.66834271    -0.06700
C194        C  0.02635595  0.40827255  0.65149319    -0.17900
C195        C  0.02697281  0.37643178  0.64838263     0.10500
C196        C  0.99796805  0.34442155  0.66360521    -0.06700
C197        C  0.46813074  0.34423281  0.68567671    -0.17900
C198        C  0.46850120  0.37661771  0.68763697     0.10500
S199        S  0.06474895  0.37847929  0.62267185    -0.32900
S200        S  0.43405303  0.37769272  0.71744473    -0.32900
H201        H  0.45712378  0.41079076  0.73584261     0.28500
H202        H  0.04413939  0.34744604  0.59931166     0.28500
H203        H  0.04858077  0.43251205  0.63934561     0.19100
H204        H  0.44717644  0.32119411  0.70134655     0.19100
C205        C  0.99942715  0.09511525  0.67093772    -0.06700
C206        C  0.46946855  0.09344385  0.65081076    -0.17900
C207        C  0.46839781  0.12494496  0.64632683     0.10500
C208        C  0.99899114  0.15965644  0.66352156    -0.06700
C209        C  0.02547402  0.15800252  0.68659302    -0.17900
C210        C  0.02578874  0.12607823  0.69087515     0.10500
S211        S  0.43186563  0.12248571  0.61728068    -0.32900
S212        S  0.05917679  0.12629468  0.72401887    -0.32900
H213        H  0.03623577  0.09280911  0.74168656     0.28500
H214        H  0.45306798  0.15455834  0.59592031     0.28500
H215        H  0.44817059  0.06909760  0.63764464     0.19100
H216        H  0.04534626  0.18145845  0.70272742     0.19100
C217        C  0.24823721  0.24840137  0.87254002    -0.06700
C218        C  0.21923977  0.22128665  0.85121309    -0.17900
C219        C  0.21790724  0.22097268  0.80837725     0.10500
C220        C  0.24658857  0.24813373  0.78582235    -0.06700
C221        C  0.27572173  0.27508309  0.80727860    -0.17900
C222        C  0.27700737  0.27541140  0.85010339     0.10500
S223        S  0.17957870  0.18429484  0.78464321    -0.32900
S224        S  0.31697434  0.30998676  0.87392779    -0.32900
H225        H  0.31914995  0.28719628  0.90309696     0.28500
H226        H  0.16730878  0.20646057  0.76885512     0.28500
H227        H  0.19709299  0.20036098  0.86808228     0.19100
H228        H  0.29802565  0.29594396  0.79055139     0.19100
C229        C  0.24717200  0.49648653  0.87676141    -0.06700
C230        C  0.28282544  0.02361811  0.86275620    -0.17900
C231        C  0.28578751  0.02464382  0.81985380     0.10500
C232        C  0.25085814  0.49974419  0.79004586    -0.06700
C233        C  0.22102310  0.47233048  0.81012216    -0.17900
C234        C  0.21861804  0.47070529  0.85293319     0.10500
S235        S  0.32703704  0.05810220  0.79676658    -0.32900
S236        S  0.17766112  0.43615650  0.87494424    -0.32900
H237        H  0.17542414  0.45852366  0.90467780     0.28500
H238        H  0.34655432  0.07167136  0.83324643     0.28500
H239        H  0.30526981  0.04224862  0.88115071     0.19100
H240        H  0.19911653  0.45208557  0.79231646     0.19100
C241        C  0.40387202  0.24546785  0.99391381    -0.06700
C242        C  0.40272711  0.27400531  0.01270544    -0.17900
C243        C  0.37125870  0.27534530  0.01413566     0.10500
C244        C  0.34012640  0.24790955  0.99541204    -0.06700
C245        C  0.34152840  0.21974431  0.97585193    -0.17900
C246        C  0.37304444  0.21847525  0.97437105     0.10500
S247        S  0.37231734  0.31156840  0.04256691    -0.32900
S248        S  0.37255363  0.18282010  0.94524696    -0.32900
H249        H  0.40657717  0.20425964  0.92813888     0.28500
H250        H  0.33998126  0.28977359  0.06308687     0.28500
H251        H  0.42623790  0.29479657  0.02787993     0.19100
H252        H  0.31806026  0.19892341  0.96065607     0.19100
C253        C  0.08997666  0.24803662  0.99532111    -0.06700
C254        C  0.09095049  0.21927895  0.01389308    -0.17900
C255        C  0.12246129  0.21793465  0.01570794     0.10500
C256        C  0.15388727  0.24573060  0.99790324    -0.06700
C257        C  0.15276165  0.27423999  0.97896575    -0.17900
C258        C  0.12123824  0.27540012  0.97677666     0.10500
S259        S  0.12098086  0.18101573  0.04301412    -0.32900
S260        S  0.12246328  0.31141294  0.94767888    -0.32900
H261        H  0.08974779  0.28966074  0.92782849     0.28500
H262        H  0.15347731  0.20206893  0.06356785     0.28500
H263        H  0.06721639  0.19815853  0.02830777     0.19100
H264        H  0.17644690  0.29533370  0.96443524     0.19100
C265        C  0.99692459  0.24670675  0.87357098    -0.06700
C266        C  0.01344233  0.27955295  0.85265427    -0.17900
C267        C  0.01260836  0.28128332  0.80998891     0.10500
C268        C  0.49299273  0.24496030  0.78885696    -0.06700
C269        C  0.47066194  0.21255717  0.80871853    -0.17900
C270        C  0.47129334  0.20948548  0.85148255     0.10500
S271        S  0.03361906  0.32490117  0.78664297    -0.32900
S272        S  0.44203954  0.16618963  0.87309522    -0.32900
H273        H  0.47005201  0.16403445  0.89205069     0.28500
H274        H  0.00842477  0.31556738  0.75503660     0.28500
H275        H  0.02686777  0.30439733  0.86959460     0.19100
H276        H  0.45326190  0.18918322  0.79067431     0.19100
C277        C  0.40349023  0.49501435  0.00139371    -0.06700
C278        C  0.40076670  0.52142188  0.02334346    -0.17900
C279        C  0.36852439  0.52121171  0.02591528     0.10500
C280        C  0.33839667  0.49478789  0.00470302    -0.06700
C281        C  0.34208932  0.97138199  0.98864345    -0.17900
C282        C  0.37409779  0.97112553  0.98569066     0.10500
S283        S  0.36716283  0.55408376  0.05866236    -0.32900
S284        S  0.37469017  0.93800832  0.95273426    -0.32900
H285        H  0.40808524  0.96164302  0.93554480     0.28500
H286        H  0.33297254  0.53071207  0.07429086     0.28500
H287        H  0.42371319  0.54182233  0.03972158     0.19100
H288        H  0.31913104  0.95168584  0.97165372     0.19100
C289        C  0.08934481  0.49654235  0.00341864    -0.06700
C290        C  0.11975016  0.02754624  0.98444636    -0.17900
C291        C  0.15237980  0.02837374  0.98169607     0.10500
C292        C  0.15438738  0.49678808  0.99866228    -0.06700
C293        C  0.12607191  0.47104449  0.02218275    -0.17900
C294        C  0.09388595  0.47090925  0.02522538     0.10500
S295        S  0.18589729  0.06161817  0.94870326    -0.32900
S296        S  0.06051072  0.43863398  0.05922896    -0.32900
H297        H  0.04921422  0.46185447  0.07411968     0.28500
H298        H  0.19679483  0.03858409  0.93217764     0.28500
H299        H  0.11611151  0.04701212  0.96750757     0.19100
H300        H  0.12942692  0.45154318  0.03945913     0.19100
C301        C  0.99619228  0.99627086  0.88208326    -0.06700
C302        C  0.46774774  0.47662304  0.85768683    -0.17900
C303        C  0.46605525  0.47614302  0.81492312     0.10500
C304        C  0.99267384  0.99758959  0.79546796    -0.06700
C305        C  0.02426396  0.02081956  0.81654036    -0.17900
C306        C  0.02643196  0.02020240  0.85925900     0.10500
S307        S  0.42381058  0.44522493  0.79224955    -0.32900
S308        S  0.06907136  0.04923969  0.88260509    -0.32900
H309        H  0.06584274  0.02461641  0.91283263     0.28500
H310        H  0.41947584  0.47258921  0.77494047     0.28500
H311        H  0.44404785  0.45888002  0.87498359     0.19100
H312        H  0.04783081  0.03942310  0.79960617     0.19100
C313        C  0.24909827  0.24620743  0.45233796    -0.06700
C314        C  0.28035389  0.25270628  0.47250015    -0.17900
C315        C  0.28278144  0.25420092  0.51547171     0.10500
C316        C  0.25290224  0.24861370  0.53891160    -0.06700
C317        C  0.22148340  0.24143922  0.51841247    -0.17900
C318        C  0.21914175  0.23974462  0.47574030     0.10500
S319        S  0.32372697  0.26197692  0.53927687    -0.32900
S320        S  0.17647161  0.22688469  0.45315863    -0.32900
H321        H  0.17919424  0.20501907  0.42321986     0.28500
H322        H  0.34380431  0.26870599  0.50312585     0.28500
H323        H  0.30299359  0.25681684  0.45444465     0.19100
H324        H  0.19818407  0.23659473  0.53575025     0.19100
C325        C  0.24805118  0.24620940  0.11897930    -0.06700
C326        C  0.24449601  0.27281049  0.13929677    -0.17900
C327        C  0.24335148  0.27396223  0.18205896     0.10500
C328        C  0.24648246  0.24823971  0.20565607    -0.06700
C329        C  0.25029690  0.22174265  0.18520299    -0.17900
C330        C  0.25141574  0.22060536  0.14238930     0.10500
S331        S  0.23932919  0.30980558  0.20434815    -0.32900
S332        S  0.25915367  0.18707516  0.11980469    -0.32900
H333        H  0.28278467  0.20984284  0.08960773     0.28500
H334        H  0.20536037  0.28650422  0.22056220     0.28500
H335        H  0.24201016  0.29268522  0.12164345     0.19100
H336        H  0.25293645  0.20190272  0.20272413     0.19100
C337        C  0.25633695  0.50207350  0.45615090    -0.06700
C338        C  0.22324356  0.48486599  0.47578819    -0.17900
C339        C  0.22072169  0.48181355  0.51849435     0.10500
C340        C  0.25218844  0.49795519  0.54268136    -0.06700
C341        C  0.28657358  0.01698860  0.52759725    -0.17900
C342        C  0.28869689  0.01995716  0.48484982     0.10500
S343        S  0.17652534  0.45579283  0.53935190    -0.32900
S344        S  0.33232324  0.04020591  0.46179583    -0.32900
H345        H  0.32481637  0.05758472  0.43020711     0.28500
H346        H  0.18526236  0.43386588  0.56264349     0.28500
H347        H  0.19910708  0.47262008  0.45755703     0.19100
H348        H  0.31104029  0.02627324  0.54477133     0.19100
C349        C  0.24831074  0.49685188  0.12389878    -0.06700
C350        C  0.26171983  0.03583521  0.14923632    -0.17900
C351        C  0.26527692  0.03896528  0.19191891     0.10500
C352        C  0.25586396  0.50272379  0.21022480    -0.06700
C353        C  0.24760426  0.47080278  0.19034951    -0.17900
C354        C  0.24339337  0.46734944  0.14778964     0.10500
S355        S  0.28391705  0.08306653  0.21366519    -0.32900
S356        S  0.23248518  0.42475690  0.12634232    -0.32900
H357        H  0.19949960  0.41852117  0.11108283     0.28500
H358        H  0.30163823  0.07732535  0.24626326     0.28500
H359        H  0.27014997  0.05981942  0.13133508     0.19100
H360        H  0.24340649  0.44793101  0.20828295     0.19100
C361        C  0.49895164  0.25594395  0.54295810    -0.06700
C362        C  0.02630690  0.24820009  0.52144266    -0.17900
C363        C  0.02853514  0.24824111  0.47852454     0.10500
C364        C  0.00543107  0.25538132  0.45471605    -0.06700
C365        C  0.48010918  0.26621516  0.47667311    -0.17900
C366        C  0.47693104  0.26454326  0.51947135     0.10500
S367        S  0.06148778  0.23972888  0.45545023    -0.32900
S368        S  0.44540022  0.27509973  0.54213828    -0.32900
H369        H  0.46689458  0.29353777  0.57596441     0.28500
H370        H  0.07962885  0.24091952  0.49170873     0.28500
H371        H  0.04332482  0.24202049  0.53975869     0.19100
H372        H  0.46281335  0.27255826  0.45905997     0.19100
C373        C  0.41360875  0.16644906  0.33928879    -0.06700
C374        C  0.41145453  0.13727867  0.31811115    -0.17900
C375        C  0.37961416  0.10484588  0.31614582     0.10500
C376        C  0.34926750  0.10096553  0.33696186    -0.06700
C377        C  0.35158935  0.13007142  0.35860985    -0.17900
C378        C  0.38345326  0.16256298  0.36043141     0.10500
S379        S  0.37928227  0.07048862  0.28455117    -0.32900
S380        S  0.38424621  0.19722477  0.39190017    -0.32900
H381        H  0.41868353  0.20927986  0.40744071     0.28500
H382        H  0.34589020  0.05987141  0.26681419     0.28500
H383        H  0.43439185  0.14018228  0.30151172     0.19100
H384        H  0.32868955  0.12721298  0.37524569     0.19100
C385        C  0.16354204  0.41074208  0.33287824    -0.06700
C386        C  0.13220809  0.41242108  0.32810689    -0.17900
C387        C  0.09884825  0.38161612  0.32548122     0.10500
C388        C  0.09620012  0.34774420  0.32858989    -0.06700
C389        C  0.12752600  0.34610441  0.33319489    -0.17900
C390        C  0.16083278  0.37682541  0.33573998     0.10500
S391        S  0.06131539  0.38794428  0.31705006    -0.32900
S392        S  0.19823202  0.37016227  0.34346811    -0.32900
H393        H  0.20961474  0.39135353  0.37910397     0.28500
H394        H  0.04865274  0.36453147  0.28330958     0.28500
H395        H  0.13359852  0.43804187  0.32553277     0.19100
H396        H  0.12618675  0.32050393  0.33582603     0.19100
C397        C  0.00017954  0.25275566  0.20780148    -0.06700
C398        C  0.49209284  0.27522986  0.18679143    -0.17900
C399        C  0.49052945  0.27402491  0.14388752     0.10500
C400        C  0.00096359  0.25478991  0.12097017    -0.06700
C401        C  0.99423185  0.22373746  0.14217401    -0.17900
C402        C  0.99354188  0.22231757  0.18500453     0.10500
S403        S  0.48018914  0.30448203  0.11812514    -0.32900
S404        S  0.98216713  0.18026704  0.20856848    -0.32900
H405        H  0.96095271  0.18290283  0.23941870     0.28500
H406        H  0.51482151  0.32488624  0.10219688     0.28500
H407        H  0.48870292  0.29535499  0.20257058     0.19100
H408        H  0.98902772  0.20006401  0.12529954     0.19100
C409        C  0.99978575  0.00310079  0.54821518    -0.06700
C410        C  0.47588949  0.50630838  0.52407357    -0.17900
C411        C  0.47319801  0.50426483  0.48131410     0.10500
C412        C  0.99643684  0.49879299  0.45895064    -0.06700
C413        C  0.02587579  0.00142941  0.48270732    -0.17900
C414        C  0.02798021  0.00380809  0.52551143     0.10500
S415        S  0.43620026  0.50614777  0.45887595    -0.32900
S416        S  0.06672946  0.00631106  0.54900185    -0.32900
H417        H  0.07844998  0.04060504  0.56505034     0.28500
H418        H  0.42664902  0.47695526  0.43256311     0.28500
H419        H  0.45631840  0.50949146  0.54140915     0.19100
H420        H  0.04768121  0.00202546  0.46579280     0.19100
C421        C  0.34036185  0.34128832  0.33182479    -0.06700
C422        C  0.34351203  0.37029929  0.30918973    -0.17900
C423        C  0.37561330  0.40278783  0.30799725     0.10500
C424        C  0.40502124  0.40691789  0.33113789    -0.06700
C425        C  0.40172685  0.37790212  0.35384800    -0.17900
C426        C  0.36980403  0.34542753  0.35479922     0.10500
S427        S  0.37794852  0.43687294  0.27425660    -0.32900
S428        S  0.36783164  0.31110679  0.38781479    -0.32900
H429        H  0.33341136  0.30050618  0.40219024     0.28500
H430        H  0.41237521  0.44736898  0.25976625     0.28500
H431        H  0.32119642  0.36721538  0.29103859     0.19100
H432        H  0.42397553  0.38082523  0.37200369     0.19100
C433        C  0.15586297  0.15544219  0.32985229    -0.06700
C434        C  0.12891435  0.15282523  0.35588672    -0.17900
C435        C  0.09684831  0.12066164  0.36036148     0.10500
C436        C  0.09133232  0.09062959  0.33755115    -0.06700
C437        C  0.11819115  0.09327264  0.31132887    -0.17900
C438        C  0.15011793  0.12544741  0.30674267     0.10500
S439        S  0.06418771  0.11784700  0.39693401    -0.32900
S440        S  0.18134574  0.12707310  0.26908255    -0.32900
H441        H  0.19204141  0.16190641  0.25569667     0.28500
H442        H  0.08416284  0.15273002  0.41247888     0.28500
H443        H  0.13330397  0.17590064  0.37336259     0.19100
H444        H  0.11374056  0.07045854  0.29312010     0.19100
C445        C  0.99600255  0.99439823  0.12891011    -0.06700
C446        C  0.50652911  0.02916465  0.15021995    -0.17900
C447        C  0.50802670  0.03077261  0.19301233     0.10500
C448        C  0.00086396  0.99810833  0.21535817    -0.06700
C449        C  0.97928799  0.46461426  0.19265968    -0.17900
C450        C  0.97587655  0.46304648  0.14994825     0.10500
S451        S  0.52220800  0.07348205  0.21667309    -0.32900
S452        S  0.94426615  0.42045062  0.12832267    -0.32900
H453        H  0.92745586  0.43462035  0.10405436     0.28500
H454        H  0.54239891  0.06933968  0.24769810     0.28500
H455        H  0.51308877  0.05325816  0.13336069     0.19100
H456        H  0.96394987  0.44052785  0.21055182     0.19100
O457        O  0.46718888  0.94015534  0.33893626    -0.72400
O458        O  0.05650026  0.52550967  0.33570482    -0.72600
O459        O  0.01340363  0.98545104  0.39710427    -0.72500
O460        O  0.01252762  0.98201788  0.28072969    -0.72500
O461        O  0.48787835  0.51490810  0.27591067    -0.72400
O462        O  0.48367029  0.51269039  0.39190288    -0.72500
O463        O  0.02869724  0.55547723  0.33748845    -0.72400
O464        O  0.43928639  0.97004738  0.33590391    -0.72600
V465        V  0.01251462  0.98430014  0.33883921     1.35200
V466        V  0.48614767  0.51297213  0.33389435     1.35200
C467        C  0.43826587  0.94036317  0.33642679     0.76800
C468        C  0.05767820  0.55523490  0.33720189     0.76900
C469        C  0.99701658  0.99840444  0.41605696     0.76800
C470        C  0.00023701  0.49745028  0.25769800     0.76700
O471        O  0.06605579  0.78716835  0.32982436    -0.72400
O472        O  0.47650467  0.69659689  0.33470660    -0.72600
O473        O  0.02175015  0.74199722  0.27234901    -0.72500
O474        O  0.02216115  0.74502459  0.38880148    -0.72500
O475        O  0.48971404  0.76838682  0.39069586    -0.72400
O476        O  0.48746488  0.76844072  0.27445937    -0.72500
O477        O  0.44587903  0.72379429  0.33363524    -0.72400
O478        O  0.03753866  0.81640930  0.32579809    -0.72600
V479        V  0.02158218  0.74420554  0.33059799     1.35200
V480        V  0.48916773  0.76783851  0.33263494     1.35200
C481        C  0.06672103  0.81660844  0.32737026     0.76800
C482        C  0.44671056  0.69508598  0.33555043     0.76900
C483        C  0.00569840  0.75439312  0.25172745     0.76800
C484        C  0.00890634  0.76100999  0.40793973     0.76700
O485        O  0.28663212  0.56107976  0.33520798    -0.72400
O486        O  0.19868095  0.97933985  0.33661632    -0.72600
O487        O  0.24144244  0.51617957  0.39163211    -0.72500
O488        O  0.24382923  0.51917715  0.27546254    -0.72500
O489        O  0.26889178  0.99245714  0.28032938    -0.72400
O490        O  0.27342904  0.99589786  0.39657376    -0.72500
O491        O  0.22756125  0.95046405  0.34089356    -0.72400
O492        O  0.31493204  0.53161319  0.33176566    -0.72600
V493        V  0.24326138  0.51715260  0.33355917     1.35200
V494        V  0.27059686  0.99464532  0.33846146     1.35200
C495        C  0.31573470  0.56111600  0.33324524     0.76800
C496        C  0.19827855  0.94999485  0.33872468     0.76900
C497        C  0.25695700  0.50269472  0.41117225     0.76800
C498        C  0.25683084  0.50343159  0.25540603     0.76700
O499        O  0.22146737  0.68836468  0.32991904    -0.72400
O500        O  0.30750780  0.77713900  0.33120867    -0.72600
O501        O  0.26479831  0.73194965  0.38861565    -0.72500
O502        O  0.26443610  0.73383446  0.27217810    -0.72500
O503        O  0.23389068  0.76096610  0.27359254    -0.72400
O504        O  0.23510417  0.76007340  0.38979236    -0.72500
O505        O  0.27742072  0.80489849  0.33171942    -0.72400
O506        O  0.19148543  0.71616226  0.33190786    -0.72600
V507        V  0.26395610  0.73332859  0.33042617     1.35200
V508        V  0.23503855  0.75995644  0.33168700     1.35200
C509        C  0.19177176  0.68714406  0.33090502     0.76800
C510        C  0.30708704  0.80607863  0.33236127     0.76900
C511        C  0.24996757  0.74572661  0.40903790     0.76800
C512        C  0.24938638  0.74804890  0.25293436     0.76700
O513        O  0.46687632  0.52575528  0.00133244    -0.72400
O514        O  0.05461060  0.52505873  0.00386627    -0.72600
O515        O  0.01185338  0.52529519  0.94488037    -0.72500
O516        O  0.00957704  0.52388362  0.06121777    -0.72500
O517        O  0.48442369  0.96992517  0.06264383    -0.72400
O518        O  0.48469901  0.97200500  0.94668316    -0.72500
O519        O  0.02793533  0.96924251  0.00389268    -0.72400
O520        O  0.44030938  0.96971134  0.00513809    -0.72600
V521        V  0.01015533  0.52351456  0.00303002     1.35200
V522        V  0.48518679  0.97217281  0.00471815     1.35200
C523        C  0.43901709  0.99821094  0.00562735     0.75600
C524        C  0.05641423  0.99901948  0.00567305     0.76900
C525        C  0.99695987  0.49654451  0.92464932     0.76800
C526        C  0.99573051  0.49472783  0.08073719     0.76700
O527        O  0.01131925  0.77098336  0.93651208    -0.72400
O528        O  0.01205754  0.77516852  0.05243806    -0.72600
O529        O  0.05494810  0.77241718  0.99517740    -0.72500
O530        O  0.47089658  0.77935272  0.99558874    -0.72500
O531        O  0.44129729  0.72152154  0.99942040    -0.72400
O532        O  0.02561498  0.71453832  0.99602630    -0.72500
O533        O  0.48601642  0.72308435  0.05763127    -0.72400
O534        O  0.48316357  0.71856573  0.94138539    -0.72600
V535        V  0.01108912  0.77186772  0.99448253     1.35200
V536        V  0.48521095  0.72194712  0.99940234     1.35200
C537        C  0.99544708  0.74161400  0.91752871     0.76800
C538        C  0.99835126  0.74715983  0.07390143     0.76900
C539        C  0.05510276  0.74333667  0.99472800     0.76800
C540        C  0.44136291  0.75065466  0.99643850     0.76700
O541        O  0.27671740  0.97032218  0.00726598    -0.72400
O542        O  0.19073221  0.97292026  0.00547961    -0.72600
O543        O  0.23390873  0.97072177  0.94813703    -0.72500
O544        O  0.23370327  0.97263944  0.06432880    -0.72500
O545        O  0.26013860  0.52500809  0.05829594    -0.72400
O546        O  0.26249716  0.52488319  0.94208377    -0.72500
O547        O  0.21782944  0.52543923  0.99838559    -0.72400
O548        O  0.30459300  0.52438916  0.00220310    -0.72600
V549        V  0.23431309  0.97277294  0.00625718     1.35200
V550        V  0.26067707  0.52380992  0.00019677     1.35200
C551        C  0.30640110  0.99883572  0.00939054     0.76800
C552        C  0.19099120  0.00217322  0.00292544     0.76900
C553        C  0.25021237  0.99931701  0.92781244     0.76800
C554        C  0.24752009  0.00169641  0.08387463     0.76700
O555        O  0.30715137  0.77966962  0.99735466    -0.72400
O556        O  0.21742777  0.77473607  0.99774714    -0.72600
O557        O  0.26248126  0.77718943  0.05568518    -0.72500
O558        O  0.26235269  0.77750843  0.93953003    -0.72500
O559        O  0.23471107  0.71958921  0.93909513    -0.72400
O560        O  0.23700467  0.71939929  0.05546859    -0.72500
O561        O  0.19093862  0.71692135  0.99867772    -0.72400
O562        O  0.28043921  0.72182311  0.99575349    -0.72600
V563        V  0.26179283  0.77616002  0.99757000     1.35200
V564        V  0.23625739  0.72055165  0.99727706     1.35200
C565        C  0.30903782  0.75148969  0.99659163     0.76800
C566        C  0.18885567  0.74496449  0.99854356     0.76900
C567        C  0.25039935  0.74830709  0.07540140     0.76800
C568        C  0.24887903  0.74868897  0.91951868     0.76700
O569        O  0.02227136  0.96945714  0.67290395    -0.72400
O570        O  0.02664497  0.56036203  0.67010131    -0.72600
O571        O  0.02483369  0.51573474  0.72827594    -0.72500
O572        O  0.02826488  0.51718093  0.61197254    -0.72500
O573        O  0.46976398  0.98762968  0.61309739    -0.72400
O574        O  0.46743263  0.98458721  0.72939196    -0.72500
O575        O  0.47239870  0.53167032  0.66914936    -0.72400
O576        O  0.46769583  0.94198591  0.66986743    -0.72600
V577        V  0.02544174  0.51595216  0.67010270     1.35200
V578        V  0.46961122  0.98657556  0.67125248     1.35200
C579        C  0.99263562  0.94085778  0.67052659     0.76800
C580        C  0.99768069  0.56069085  0.67031433     0.76900
C581        C  0.99544335  0.49998715  0.74717576     0.76800
C582        C  0.99999973  0.50373211  0.59099416     0.76700
O583        O  0.46915889  0.77902724  0.66476773    -0.72400
O584        O  0.47061661  0.69242448  0.66309660    -0.72600
O585        O  0.46823215  0.73399389  0.72220486    -0.72500
O586        O  0.47166679  0.73749510  0.60578836    -0.72500
O587        O  0.02489044  0.76603138  0.60663198    -0.72400
O588        O  0.01964321  0.76404894  0.72239899    -0.72500
O589        O  0.02301622  0.72160395  0.66511554    -0.72400
O590        O  0.02104708  0.80793410  0.66380471    -0.72600
V591        V  0.47100440  0.73625633  0.66401063     1.35200
V592        V  0.02100185  0.76428477  0.66444929     1.35200
C593        C  0.99186778  0.80775018  0.66275433     0.76800
C594        C  0.99454825  0.69197982  0.66171209     0.76900
C595        C  0.49669550  0.74916613  0.74287111     0.76800
C596        C  0.50120321  0.75282768  0.58719342     0.76700
O597        O  0.28042585  0.51311908  0.72486774    -0.72400
O598        O  0.28067240  0.51199037  0.60839936    -0.72600
O599        O  0.28294951  0.55755321  0.66595546    -0.72500
O600        O  0.28354960  0.97156946  0.67008856    -0.72500
O601        O  0.22573975  0.94307261  0.67231286    -0.72400
O602        O  0.22529970  0.53083444  0.66680705    -0.72500
O603        O  0.22551352  0.98717627  0.61460682    -0.72400
O604        O  0.22709488  0.98691717  0.73089427    -0.72600
V605        V  0.27950823  0.51218288  0.66661224     1.35200
V606        V  0.22737819  0.98754109  0.67275735     1.35200
C607        C  0.25621076  0.00079101  0.75036605     0.76800
C608        C  0.25398013  0.00191761  0.59400204     0.76900
C609        C  0.25491855  0.55955138  0.66645061     0.76800
C610        C  0.25445784  0.94236699  0.67122186     0.76700
O611        O  0.22136835  0.73494234  0.72099011    -0.72400
O612        O  0.22542848  0.73627409  0.60517631    -0.72600
O613        O  0.22375985  0.69212246  0.66371508    -0.72500
O614        O  0.22329939  0.77937426  0.66277348    -0.72500
O615        O  0.28115094  0.80843822  0.66413876    -0.72400
O616        O  0.28143975  0.72124466  0.66692562    -0.72500
O617        O  0.28312005  0.76474261  0.60727632    -0.72400
O618        O  0.27900544  0.76469168  0.72373545    -0.72600
V619        V  0.22460027  0.73626521  0.66313677     1.35200
V620        V  0.28009212  0.76425137  0.66548884     1.35200
C621        C  0.24938245  0.74940175  0.74227671     0.76800
C622        C  0.25480217  0.75033757  0.58630357     0.76900
C623        C  0.25263022  0.69176617  0.66609342     0.76800
C624        C  0.25223248  0.80875754  0.66309195     0.76700
C625        C  0.25403473  0.90824949  0.67050035    -0.06700
C626        C  0.27748940  0.90474099  0.64390422    -0.17900
C627        C  0.27659773  0.87221700  0.63972024     0.10500
C628        C  0.25227498  0.84266948  0.66335842    -0.06700
C629        C  0.22881033  0.84615465  0.68995056    -0.17900
C630        C  0.22979101  0.87871738  0.69426190     0.10500
S631        S  0.30585420  0.86967753  0.60227916    -0.32900
S632        S  0.20102932  0.88139285  0.73231278    -0.32900
H633        H  0.22575642  0.91623148  0.74510475     0.28500
H634        H  0.28174037  0.83450443  0.58996746     0.28500
H635        H  0.29583899  0.92718296  0.62520919     0.19100
H636        H  0.21055979  0.82372881  0.70873723     0.19100
C637        C  0.25609048  0.59425442  0.66737763    -0.06700
C638        C  0.22674192  0.59514762  0.68414860    -0.17900
C639        C  0.22499191  0.62643468  0.68450569     0.10500
C640        C  0.25306058  0.65792087  0.66731331    -0.06700
C641        C  0.28281050  0.65732470  0.65133346    -0.17900
C642        C  0.28480861  0.62609888  0.65148119     0.10500
S643        S  0.18733594  0.62490953  0.70966802    -0.32900
S644        S  0.32394726  0.62849493  0.62931295    -0.32900
H645        H  0.33494013  0.62113795  0.66688322     0.28500
H646        H  0.17239089  0.62758847  0.67247028     0.28500
H647        H  0.20491903  0.57124286  0.69743908     0.19100
H648        H  0.30464608  0.68134655  0.63825530     0.19100
C649        C  0.99113064  0.90618610  0.66851074    -0.06700
C650        C  0.01946010  0.90501150  0.64939060    -0.17900
C651        C  0.01944235  0.87300616  0.64499159     0.10500
C652        C  0.99119065  0.84138614  0.66177752    -0.06700
C653        C  0.46742603  0.84258886  0.68089790    -0.17900
C654        C  0.46642865  0.87421745  0.68451524     0.10500
S655        S  0.05518867  0.87416856  0.61552995    -0.32900
S656        S  0.42766922  0.87132292  0.70862908    -0.32900
H657        H  0.44726881  0.90184007  0.73308969     0.28500
H658        H  0.03328770  0.84171819  0.59514616     0.28500
H659        H  0.04136499  0.92911451  0.63649662     0.19100
H660        H  0.44508262  0.81805255  0.69223953     0.19100
C661        C  0.99709324  0.59437917  0.66977337    -0.06700
C662        C  0.47429688  0.59586498  0.64900539    -0.17900
C663        C  0.47343975  0.62746389  0.64553885     0.10500
C664        C  0.99531486  0.65833604  0.66246977    -0.06700
C665        C  0.02232255  0.65728144  0.68511383    -0.17900
C666        C  0.02321515  0.62564872  0.68947513     0.10500
S667        S  0.43844314  0.62624384  0.61448756    -0.32900
S668        S  0.05699535  0.62657074  0.72253131    -0.32900
H669        H  0.03464956  0.59276417  0.73984235     0.28500
H670        H  0.46075211  0.65898061  0.59489878     0.28500
H671        H  0.45382669  0.57220624  0.63373886     0.19100
H672        H  0.04222285  0.68100334  0.70081965     0.19100
C673        C  0.24960071  0.74896531  0.87434672    -0.06700
C674        C  0.21980169  0.72289376  0.85311594    -0.17900
C675        C  0.21840617  0.72270670  0.81027209     0.10500
C676        C  0.24792553  0.74882563  0.78768858    -0.06700
C677        C  0.27780994  0.77469576  0.80916602    -0.17900
C678        C  0.27909771  0.77492079  0.85194738     0.10500
S679        S  0.17870744  0.68768737  0.78668430    -0.32900
S680        S  0.31993198  0.80788252  0.87586613    -0.32900
H681        H  0.32010613  0.78446879  0.90567164     0.28500
H682        H  0.16905220  0.71167466  0.77014120     0.28500
H683        H  0.19706895  0.70281684  0.87009462     0.19100
H684        H  0.30073988  0.79478632  0.79248915     0.19100
C685        C  0.25131945  0.99885378  0.88255095    -0.06700
C686        C  0.27691273  0.52398752  0.85672722    -0.17900
C687        C  0.27887027  0.52622852  0.81392163     0.10500
C688        C  0.25622725  0.00031381  0.79592891    -0.06700
C689        C  0.22490538  0.97521393  0.81600717    -0.17900
C690        C  0.22201182  0.97441132  0.85871738     0.10500
S691        S  0.31703633  0.56449772  0.79205964    -0.32900
S692        S  0.17952367  0.94286189  0.88058097    -0.32900
H693        H  0.17956695  0.96681813  0.90978568     0.28500
H694        H  0.29711824  0.57112510  0.76289479     0.28500
H695        H  0.29878272  0.54421438  0.87459251     0.19100
H696        H  0.20205787  0.95633656  0.79825463     0.19100
C697        C  0.40787201  0.75141349  0.99429725    -0.06700
C698        C  0.40589185  0.77884146  0.01482724    -0.17900
C699        C  0.37405466  0.77951649  0.01649846     0.10500
C700        C  0.34356908  0.75266634  0.99621125    -0.06700
C701        C  0.34588878  0.72578541  0.97477790    -0.17900
C702        C  0.37768504  0.72510799  0.97316021     0.10500
S703        S  0.37365516  0.81389068  0.04728681    -0.32900
S704        S  0.37836358  0.69104824  0.94199168    -0.32900
H705        H  0.41276571  0.71349176  0.92637868     0.28500
H706        H  0.34068301  0.79085787  0.06589426     0.28500
H707        H  0.42893237  0.79909892  0.03116113     0.19100
H708        H  0.32290602  0.70548985  0.95840141     0.19100
C709        C  0.08891789  0.74300553  0.99328306    -0.06700
C710        C  0.09063528  0.71479422  0.01220741    -0.17900
C711        C  0.12275378  0.71470412  0.01493982     0.10500
C712        C  0.15406346  0.74337120  0.99797388    -0.06700
C713        C  0.15204537  0.77107688  0.97818995    -0.17900
C714        C  0.11987582  0.77082372  0.97483658     0.10500
S715        S  0.12204228  0.67811742  0.04215952    -0.32900
S716        S  0.11987564  0.80559623  0.94438875    -0.32900
H717        H  0.08695907  0.78288391  0.92543515     0.28500
H718        H  0.15361170  0.69982340  0.06406966     0.28500
H719        H  0.06703388  0.69321310  0.02627359     0.19100
H720        H  0.17554649  0.79261226  0.96389776     0.19100
C721        C  0.99390322  0.74144346  0.87185968    -0.06700
C722        C  0.00808040  0.77461935  0.85182660    -0.17900
C723        C  0.00594648  0.77703940  0.80936083     0.10500
C724        C  0.49600702  0.74899427  0.78796493    -0.06700
C725        C  0.47310193  0.71718512  0.80850164    -0.17900
C726        C  0.47372581  0.71491458  0.85130401     0.10500
S727        S  0.02474228  0.82103540  0.78728610    -0.32900
S728        S  0.44407639  0.67211424  0.87380974    -0.32900
H729        H  0.47203650  0.66928329  0.89185493     0.28500
H730        H  0.99968812  0.81111342  0.75542553     0.28500
H731        H  0.02070495  0.79917861  0.86932758     0.19100
H732        H  0.45539481  0.69357610  0.79097167     0.19100
C733        C  0.40461091  0.99742057  0.00649895    -0.06700
C734        C  0.40205687  0.02324481  0.02993455    -0.17900
C735        C  0.36996102  0.02330799  0.03313855     0.10500
C736        C  0.33981016  0.99774338  0.01123210    -0.06700
C737        C  0.34085018  0.46786143  0.98363700    -0.17900
C738        C  0.37298359  0.46781766  0.98144125     0.10500
S739        S  0.36877752  0.05541392  0.06738389    -0.32900
S740        S  0.37363279  0.43360399  0.95060185    -0.32900
H741        H  0.40665913  0.45684426  0.93237005     0.28500
H742        H  0.33406057  0.03223325  0.08172099     0.28500
H743        H  0.42502228  0.04296297  0.04689644     0.19100
H744        H  0.31788511  0.44742291  0.96732388     0.19100
C745        C  0.09128547  0.00088570  0.00699160    -0.06700
C746        C  0.11769749  0.52243693  0.98009342    -0.17900
C747        C  0.14987567  0.52251106  0.97694287     0.10500
C748        C  0.15710831  0.00252527  0.00288644    -0.06700
C749        C  0.12881348  0.97641712  0.02611348    -0.17900
C750        C  0.09633448  0.97563528  0.02890621     0.10500
S751        S  0.18314325  0.55467934  0.94279215    -0.32900
S752        S  0.06314456  0.94291164  0.06272341    -0.32900
H753        H  0.05116710  0.96562160  0.07748750     0.28500
H754        H  0.19367967  0.53105684  0.92722202     0.28500
H755        H  0.11431277  0.54197383  0.96294778     0.19100
H756        H  0.13233626  0.95697579  0.04328655     0.19100
C757        C  0.99711482  0.49706986  0.87950545    -0.06700
C758        C  0.46768543  0.97685804  0.86206147    -0.17900
C759        C  0.46543360  0.97593899  0.81930058     0.10500
C760        C  0.99463689  0.49874196  0.79284239    -0.06700
C761        C  0.02714042  0.51800636  0.81410134    -0.17900
C762        C  0.02865166  0.51757314  0.85703499     0.10500
S763        S  0.42365640  0.94310934  0.79729294    -0.32900
S764        S  0.07120777  0.54155851  0.88270921    -0.32900
H765        H  0.09121088  0.56040975  0.84817537     0.28500
H766        H  0.41723280  0.96909099  0.77984397     0.28500
H767        H  0.44460823  0.95841882  0.87971422     0.19100
H768        H  0.05159049  0.53336924  0.79708977     0.19100
C769        C  0.25050349  0.74562882  0.45430795    -0.06700
C770        C  0.28098748  0.74991704  0.47453890    -0.17900
C771        C  0.28372769  0.75208057  0.51750521     0.10500
C772        C  0.25512013  0.74980312  0.54083415    -0.06700
C773        C  0.22459265  0.74516587  0.52033590    -0.17900
C774        C  0.22174785  0.74250939  0.47774202     0.10500
S775        S  0.32324370  0.75637472  0.54161517    -0.32900
S776        S  0.17981148  0.73296233  0.45552562    -0.32900
H777        H  0.17924667  0.70874782  0.42634391     0.28500
H778        H  0.34119039  0.75678120  0.50551182     0.28500
H779        H  0.30282023  0.75184464  0.45653748     0.19100
H780        H  0.20226516  0.74292077  0.53768682     0.19100
C781        C  0.25151308  0.74855297  0.12067566    -0.06700
C782        C  0.24631575  0.77385734  0.14167032    -0.17900
C783        C  0.24552131  0.77459384  0.18466473     0.10500
C784        C  0.24989214  0.74913888  0.20741390    -0.06700
C785        C  0.25577154  0.72429079  0.18619634    -0.17900
C786        C  0.25712046  0.72403641  0.14337979     0.10500
S787        S  0.24014870  0.80900701  0.20945147    -0.32900
S788        S  0.26789089  0.69295061  0.11979573    -0.32900
H789        H  0.29021078  0.71697284  0.08959596     0.28500
H790        H  0.23774777  0.82586083  0.17370445     0.28500
H791        H  0.24244573  0.79288913  0.12417256     0.19100
H792        H  0.25972285  0.70500470  0.20309457     0.19100
C793        C  0.25733690  0.00830324  0.46172811    -0.06700
C794        C  0.22467126  0.99473569  0.48200797    -0.17900
C795        C  0.22235600  0.99135826  0.52470718     0.10500
C796        C  0.25376582  0.00286933  0.54832519    -0.06700
C797        C  0.28536897  0.51505718  0.52251796    -0.17900
C798        C  0.28773887  0.51725094  0.47973664     0.10500
S799        S  0.17838821  0.97194622  0.54641748    -0.32900
S800        S  0.33153090  0.54090028  0.45713105    -0.32900
H801        H  0.32192116  0.55556739  0.42446812     0.28500
H802        H  0.18041447  0.94345751  0.56439046     0.28500
H803        H  0.20048813  0.98560455  0.46425461     0.19100
H804        H  0.30982296  0.52746434  0.54011418     0.19100
C805        C  0.24809143  0.00257718  0.12950177    -0.06700
C806        C  0.25722083  0.52901890  0.14403176    -0.17900
C807        C  0.26127856  0.53234261  0.18661713     0.10500
C808        C  0.25520381  0.00821308  0.21584326    -0.06700
C809        C  0.24175780  0.97510509  0.19649389    -0.17900
C810        C  0.23726810  0.97172476  0.15400876     0.10500
S811        S  0.27502019  0.57554480  0.20863831    -0.32900
S812        S  0.21697470  0.92705943  0.13384672    -0.32900
H813        H  0.18904319  0.92941943  0.11494340     0.28500
H814        H  0.29732036  0.57351577  0.23855673     0.28500
H815        H  0.26158783  0.55210253  0.12645468     0.19100
H816        H  0.23339949  0.95135063  0.21486579     0.19100
C817        C  0.50296542  0.75501807  0.54206685    -0.06700
C818        C  0.02753948  0.75387867  0.52078060    -0.17900
C819        C  0.03178890  0.75604881  0.47806441     0.10500
C820        C  0.00777100  0.76108195  0.45345018    -0.06700
C821        C  0.48077215  0.76068104  0.47591340    -0.17900
C822        C  0.47889627  0.76065596  0.51864009     0.10500
S823        S  0.06903509  0.75404439  0.45609271    -0.32900
S824        S  0.44634200  0.76977232  0.54125868    -0.32900
H825        H  0.46886150  0.79141441  0.57291162     0.28500
H826        H  0.07967520  0.74391811  0.49200010     0.28500
H827        H  0.04563501  0.74960824  0.53961182     0.19100
H828        H  0.46164336  0.76446887  0.45848943     0.19100
C829        C  0.41373407  0.66048921  0.33768618    -0.06700
C830        C  0.41207034  0.63178824  0.31587989    -0.17900
C831        C  0.38035136  0.59927552  0.31309566     0.10500
C832        C  0.34973782  0.59490737  0.33366288    -0.06700
C833        C  0.35174963  0.62334387  0.35644399    -0.17900
C834        C  0.38346165  0.65584909  0.35915377     0.10500
S835        S  0.38032635  0.56552701  0.28066172    -0.32900
S836        S  0.38396001  0.68957293  0.39208592    -0.32900
H837        H  0.41866979  0.70192617  0.40690515     0.28500
H838        H  0.34708796  0.55533827  0.26267927     0.28500
H839        H  0.43522188  0.63518879  0.29932754     0.19100
H840        H  0.32867044  0.61994355  0.37317008     0.19100
C841        C  0.16447047  0.91596351  0.33731067    -0.06700
C842        C  0.13807577  0.91279436  0.30996637    -0.17900
C843        C  0.10657049  0.88031569  0.30469991     0.10500
C844        C  0.10076306  0.85044700  0.32813257    -0.06700
C845        C  0.12722618  0.85357935  0.35534575    -0.17900
C846        C  0.15874736  0.88603050  0.36057850     0.10500
S847        S  0.07581932  0.87825485  0.26608587    -0.32900
S848        S  0.18957556  0.88795669  0.39901817    -0.32900
H849        H  0.19961392  0.92262776  0.41245422     0.28500
H850        H  0.06518165  0.84324475  0.25343850     0.28500
H851        H  0.14258656  0.93547240  0.29142044     0.19100
H852        H  0.12270437  0.83090977  0.37394310     0.19100
C853        C  0.00327591  0.75142187  0.20632915    -0.06700
C854        C  0.50866247  0.78388322  0.18774058    -0.17900
C855        C  0.51015750  0.78532514  0.14484481     0.10500
C856        C  0.99967007  0.74919181  0.11938563    -0.06700
C857        C  0.00128963  0.72226153  0.14160292    -0.17900
C858        C  0.00278547  0.72286270  0.18455643     0.10500
S859        S  0.52417229  0.82812618  0.12179864    -0.32900
S860        S  0.00212916  0.68540925  0.20950847    -0.32900
H861        H  0.97740618  0.68200588  0.23962233     0.28500
H862        H  0.55456370  0.82995521  0.10389069     0.28500
H863        H  0.51636997  0.80812498  0.20490639     0.19100
H864        H  0.00120983  0.70037001  0.12538022     0.19100
C865        C  0.00074596  0.50379278  0.54560257    -0.06700
C866        C  0.47081463  0.00027557  0.52777461    -0.17900
C867        C  0.46847501  0.99849123  0.48501739     0.10500
C868        C  0.99664713  0.99909448  0.46144176    -0.06700
C869        C  0.02418616  0.49790609  0.48013287    -0.17900
C870        C  0.02678402  0.50061880  0.52288402     0.10500
S871        S  0.42909475  0.99530052  0.46228824    -0.32900
S872        S  0.06275641  0.49780373  0.54661712    -0.32900
H873        H  0.07879691  0.53290446  0.56180052     0.28500
H874        H  0.42427771  0.96877806  0.43386554     0.28500
H875        H  0.44957518  0.00054506  0.54502786     0.19100
H876        H  0.04441794  0.49552277  0.46322640     0.19100
C877        C  0.34041827  0.84048093  0.33454528    -0.06700
C878        C  0.34350247  0.86910405  0.31119295    -0.17900
C879        C  0.37532264  0.90179735  0.31038275     0.10500
C880        C  0.40433005  0.90646431  0.33466349    -0.06700
C881        C  0.40110472  0.87786408  0.35813506    -0.17900
C882        C  0.36949725  0.84514229  0.35863660     0.10500
S883        S  0.37797664  0.93541803  0.27561555    -0.32900
S884        S  0.36746622  0.81112231  0.39226285    -0.32900
H885        H  0.33254374  0.79969647  0.40547103     0.28500
H886        H  0.41297891  0.94659306  0.26274269     0.28500
H887        H  0.32145764  0.86553011  0.29219041     0.19100
H888        H  0.42312861  0.88129117  0.37707714     0.19100
C889        C  0.15800673  0.65287667  0.33207275    -0.06700
C890        C  0.12962800  0.65136332  0.35440025    -0.17900
C891        C  0.09694177  0.61983615  0.35721146     0.10500
C892        C  0.09213539  0.58880362  0.33725184    -0.06700
C893        C  0.12076972  0.59000717  0.31578220    -0.17900
C894        C  0.15339402  0.62171387  0.31246180     0.10500
S895        S  0.06318329  0.62024890  0.38888438    -0.32900
S896        S  0.18711440  0.62092697  0.28090572    -0.32900
H897        H  0.19768356  0.65399252  0.26206298     0.28500
H898        H  0.04333245  0.62026583  0.35475373     0.28500
H899        H  0.13299876  0.67485253  0.37020916     0.19100
H900        H  0.11731039  0.56641811  0.30011672     0.19100
C901        C  0.99566211  0.49451516  0.12632264    -0.06700
C902        C  0.51175050  0.52906369  0.14624054    -0.17900
C903        C  0.51414338  0.53064093  0.18900174     0.10500
C904        C  0.00058389  0.49703847  0.21276669    -0.06700
C905        C  0.98557757  0.96511414  0.19539628    -0.17900
C906        C  0.98229166  0.96275103  0.15271228     0.10500
S907        S  0.53504834  0.57412276  0.21271218    -0.32900
S908        S  0.95925016  0.91842339  0.13139634    -0.32900
H909        H  0.93445869  0.92439152  0.11013539     0.28500
H910        H  0.55157017  0.56557550  0.24431476     0.28500
H911        H  0.52200284  0.55384273  0.12938989     0.19100
H912        H  0.97480367  0.94083362  0.21336940     0.19100
O913        O  0.96807540  0.43928084  0.33698656    -0.72400
O914        O  0.55550156  0.02627225  0.33869944    -0.72600
O915        O  0.51276244  0.48405565  0.39342271    -0.72500
O916        O  0.51226262  0.48161063  0.27691200    -0.72500
O917        O  0.98752572  0.01475715  0.27928859    -0.72400
O918        O  0.98166434  0.01137441  0.39522091    -0.72500
O919        O  0.52782136  0.05641020  0.34031224    -0.72400
O920        O  0.94031641  0.46915217  0.33141499    -0.72600
V921        V  0.51206492  0.48337268  0.33510670     1.35200
V922        V  0.98503833  0.01236733  0.33725759     1.35200
C923        C  0.93919869  0.43944295  0.33310178     0.76800
C924        C  0.55674820  0.05601754  0.33983111     0.76900
C925        C  0.49792074  0.49852965  0.41261513     0.76800
C926        C  0.49895383  0.99926876  0.26077171     0.76700
O927        O  0.56305059  0.28926590  0.33043392    -0.72400
O928        O  0.97502410  0.19651666  0.33280777    -0.72600
O929        O  0.51788408  0.24283712  0.27504786    -0.72500
O930        O  0.52131778  0.24726471  0.39098212    -0.72500
O931        O  0.99005759  0.26916641  0.38963306    -0.72400
O932        O  0.98816302  0.26881785  0.27329754    -0.72500
O933        O  0.94573492  0.22511141  0.33262963    -0.72400
O934        O  0.53374380  0.31761341  0.33060694    -0.72600
V935        V  0.51920595  0.24583150  0.33302424     1.35200
V936        V  0.98965895  0.26843557  0.33151201     1.35200
C937        C  0.56331951  0.31859480  0.33002441     0.76800
C938        C  0.94567324  0.19594706  0.33397328     0.76900
C939        C  0.50178925  0.25528678  0.25474072     0.76800
C940        C  0.50640628  0.26114165  0.41092447     0.76700
O941        O  0.78421757  0.06330557  0.33831917    -0.72400
O942        O  0.69956874  0.47987972  0.33873157    -0.72600
O943        O  0.74027750  0.01899405  0.39601203    -0.72500
O944        O  0.74060773  0.02025909  0.27989075    -0.72500
O945        O  0.77064997  0.49463271  0.27946526    -0.72400
O946        O  0.77374549  0.49521482  0.39572077    -0.72500
O947        O  0.72847996  0.45112188  0.33843690    -0.72400
O948        O  0.81290294  0.03418880  0.33490239    -0.72600
V949        V  0.74105408  0.01905566  0.33796082     1.35200
V950        V  0.77156852  0.49539936  0.33755138     1.35200
C951        C  0.81339109  0.06354029  0.33569857     0.76800
C952        C  0.69903802  0.45040948  0.33859618     0.76900
C953        C  0.75632151  0.00602526  0.41544605     0.76800
C954        C  0.75396680  0.00492121  0.25973288     0.76700
O955        O  0.72026576  0.18798557  0.32806896    -0.72400
O956        O  0.80734219  0.27600119  0.32868091    -0.72600
O957        O  0.76451875  0.23136676  0.38642741    -0.72500
O958        O  0.76339304  0.23278601  0.27004630    -0.72500
O959        O  0.73320352  0.26025052  0.27171839    -0.72400
O960        O  0.73605211  0.26074809  0.38783317    -0.72500
O961        O  0.77802001  0.30453612  0.32877313    -0.72400
O962        O  0.69118716  0.21668440  0.33094899    -0.72600
V963        V  0.76330337  0.23254947  0.32826881     1.35200
V964        V  0.73518711  0.25998755  0.32975052     1.35200
C965        C  0.69085732  0.18737755  0.32962824     0.76800
C966        C  0.80746081  0.30523812  0.32938593     0.76900
C967        C  0.75050261  0.24591082  0.40692366     0.76800
C968        C  0.74818731  0.24688861  0.25091140     0.76700
O969        O  0.96419940  0.02142572  0.00524246    -0.72400
O970        O  0.55679403  0.03033197  0.00637142    -0.72600
O971        O  0.51310274  0.02994925  0.94791765    -0.72500
O972        O  0.51152719  0.02761617  0.06439772    -0.72500
O973        O  0.98267221  0.46616165  0.06026679    -0.72400
O974        O  0.98149271  0.46734297  0.94395747    -0.72500
O975        O  0.52861513  0.47137994  0.00027692    -0.72400
O976        O  0.93822342  0.46635939  0.00332367    -0.72600
V977        V  0.51181191  0.02779058  0.00613980     1.35200
V978        V  0.98266052  0.46787128  0.00217948     1.35200
C979        C  0.93754387  0.49518595  0.00294190     0.75600
C980        C  0.55742333  0.50081087  0.00222703     0.76900
C981        C  0.49914356  0.00125792  0.92751563     0.76800
C982        C  0.49773324  0.99823417  0.08350263     0.76700
O983        O  0.51035207  0.26977649  0.93987196    -0.72400
O984        O  0.50934707  0.27440891  0.05577570    -0.72600
O985        O  0.55300310  0.27111490  0.99972458    -0.72500
O986        O  0.97055883  0.28067029  0.99515827    -0.72500
O987        O  0.94060030  0.22278782  0.99797759    -0.72400
O988        O  0.52341933  0.21325534  0.00061146    -0.72500
O989        O  0.98471388  0.22393247  0.05679774    -0.72400
O990        O  0.98266834  0.21951302  0.94050248    -0.72600
V991        V  0.50934285  0.27092647  0.99783796     1.35200
V992        V  0.98424528  0.22278338  0.99857160     1.35200
C993        C  0.49457358  0.24030944  0.92103889     0.76800
C994        C  0.49502117  0.24636971  0.07719715     0.76900
C995        C  0.55301804  0.24196315  0.99928496     0.76800
C996        C  0.94090561  0.25204508  0.99541904     0.76700
O997        O  0.77670949  0.47066264  0.00702196    -0.72400
O998        O  0.69105352  0.47367680  0.00533904    -0.72600
O999        O  0.73360880  0.47075855  0.94795389    -0.72500
O1000       O  0.73429051  0.47378903  0.06423816    -0.72500
O1001       O  0.76149211  0.02692116  0.06244391    -0.72400
O1002       O  0.76495528  0.02561785  0.94622505    -0.72500
O1003       O  0.72084887  0.02906787  0.00154141    -0.72400
O1004       O  0.80524655  0.02339456  0.00748380    -0.72600
V1005       V  0.73447976  0.47335739  0.00610702     1.35200
V1006       V  0.76251668  0.02514735  0.00435429     1.35200
C1007       C  0.80654497  0.49905651  0.00818688     0.76800
C1008       C  0.69144003  0.50295770  0.00249774     0.76900
C1009       C  0.74953246  0.49920375  0.92728254     0.76800
C1010       C  0.74938287  0.50316358  0.08324017     0.76700
O1011       O  0.80520993  0.27851134  0.99609650    -0.72400
O1012       O  0.71507639  0.27256096  0.99586538    -0.72600
O1013       O  0.75988888  0.27516614  0.05392548    -0.72500
O1014       O  0.76062813  0.27604927  0.93774167    -0.72500
O1015       O  0.73280078  0.21813046  0.93702393    -0.72400
O1016       O  0.73559700  0.21746493  0.05338954    -0.72500
O1017       O  0.68897296  0.21479184  0.99729049    -0.72400
O1018       O  0.77908036  0.22071616  0.99324026    -0.72600
V1019       V  0.75963568  0.27444896  0.99584368     1.35200
V1020       V  0.73457152  0.21887616  0.99522985     1.35200
C1021       C  0.80747618  0.25056405  0.99484422     0.76800
C1022       C  0.68662850  0.24271002  0.99736715     0.76900
C1023       C  0.74832516  0.24625501  0.07345189     0.76800
C1024       C  0.74722610  0.24729849  0.91756535     0.76700
O1025       O  0.52709436  0.47044732  0.66922483    -0.72400
O1026       O  0.52690170  0.05834686  0.67144973    -0.72600
O1027       O  0.52505633  0.01465566  0.73085470    -0.72500
O1028       O  0.52738428  0.01389714  0.61469491    -0.72500
O1029       O  0.97058319  0.48994727  0.60981071    -0.72400
O1030       O  0.96727722  0.48546151  0.72601036    -0.72500
O1031       O  0.96905913  0.03207438  0.67194453    -0.72400
O1032       O  0.96866632  0.44401956  0.66607597    -0.72600
V1033       V  0.52508304  0.01370955  0.67273643     1.35200
V1034       V  0.96997176  0.48826554  0.66793928     1.35200
C1035       C  0.49759736  0.44163605  0.66779386     0.76800
C1036       C  0.49820217  0.05916370  0.67188955     0.76900
C1037       C  0.49584910  0.99944272  0.75011768     0.76800
C1038       C  0.49902306  0.00086863  0.59398206     0.76700
O1039       O  0.96904756  0.28084997  0.66508774    -0.72400
O1040       O  0.96953759  0.19362802  0.66102598    -0.72600
O1041       O  0.96750328  0.23446873  0.72132901    -0.72500
O1042       O  0.97086407  0.23974241  0.60506160    -0.72500
O1043       O  0.52528467  0.26535446  0.60874524    -0.72400
O1044       O  0.52267839  0.26207899  0.72463829    -0.72500
O1045       O  0.52414219  0.22015175  0.66537034    -0.72400
O1046       O  0.52382534  0.30711668  0.66763497    -0.72600
V1047       V  0.97030214  0.23770323  0.66320215     1.35200
V1048       V  0.52281265  0.26306274  0.66662377     1.35200
C1049       C  0.49499104  0.30757429  0.66701146     0.76800
C1050       C  0.49542478  0.19071009  0.66293663     0.76900
C1051       C  0.99588656  0.25004892  0.74204905     0.76800
C1052       C  0.00034926  0.25385479  0.58641909     0.76700
O1053       O  0.78422710  0.01376074  0.72859672    -0.72400
O1054       O  0.78286687  0.01550262  0.61211572    -0.72600
O1055       O  0.78404105  0.05867351  0.67183428    -0.72500
O1056       O  0.78168783  0.46982957  0.66946426    -0.72500
O1057       O  0.72389253  0.44205833  0.67054136    -0.72400
O1058       O  0.72626191  0.03003879  0.67263699    -0.72500
O1059       O  0.72492311  0.48716242  0.61362234    -0.72400
O1060       O  0.72552093  0.48569695  0.73000520    -0.72600
V1061       V  0.78251474  0.01416465  0.67033507     1.35200
V1062       V  0.72627928  0.48691076  0.67176545     1.35200
C1063       C  0.75452768  0.49934213  0.74971878     0.76800
C1064       C  0.75357220  0.50128413  0.59334596     0.76900
C1065       C  0.75528081  0.05935745  0.67255479     0.76800
C1066       C  0.75235929  0.44084894  0.66949255     0.76700
O1067       O  0.72176566  0.23423738  0.71858181    -0.72400
O1068       O  0.72623261  0.23585921  0.60278956    -0.72600
O1069       O  0.72472508  0.19176002  0.66113226    -0.72500
O1070       O  0.72334753  0.27846055  0.66017364    -0.72500
O1071       O  0.78116512  0.30813043  0.66202818    -0.72400
O1072       O  0.78241481  0.22127799  0.66452080    -0.72500
O1073       O  0.78390365  0.26492727  0.60514998    -0.72400
O1074       O  0.77937165  0.26433625  0.72166382    -0.72600
V1075       V  0.72517105  0.23568284  0.66070703     1.35200
V1076       V  0.78064235  0.26413240  0.66334862     1.35200
C1077       C  0.74968129  0.24875318  0.74006439     0.76800
C1078       C  0.75567135  0.25040035  0.58403943     0.76900
C1079       C  0.75375748  0.19166701  0.66271996     0.76800
C1080       C  0.75203899  0.30805094  0.66043638     0.76700
C1081       C  0.75156846  0.40652367  0.66747086    -0.06700
C1082       C  0.77675071  0.40415854  0.64267387    -0.17900
C1083       C  0.77658843  0.37199243  0.63827339     0.10500
C1084       C  0.75136281  0.34164510  0.66014570    -0.06700
C1085       C  0.72574960  0.34380473  0.68424323    -0.17900
C1086       C  0.72578269  0.37589507  0.68850989     0.10500
S1087       S  0.80793592  0.37097187  0.60274069    -0.32900
S1088       S  0.69362659  0.37637986  0.72314754    -0.32900
H1089       H  0.71734302  0.40996940  0.74008332     0.28500
H1090       H  0.78480915  0.33605367  0.58879990     0.28500
H1091       H  0.79609272  0.42731779  0.62564040     0.19100
H1092       H  0.70643234  0.32064585  0.70129304     0.19100
C1093       C  0.75523933  0.09340804  0.67156115    -0.06700
C1094       C  0.72746907  0.09430828  0.65055717    -0.17900
C1095       C  0.72699513  0.12609574  0.64569144     0.10500
C1096       C  0.75428495  0.15784777  0.66351837    -0.06700
C1097       C  0.78218910  0.15700745  0.68432660    -0.17900
C1098       C  0.78282993  0.12524439  0.68884338     0.10500
S1099       S  0.69202799  0.12452659  0.61426708    -0.32900
S1100       S  0.81849297  0.12690333  0.71887686    -0.32900
H1101       H  0.79642601  0.09458029  0.73930329     0.28500
H1102       H  0.71440500  0.15687594  0.59396218     0.28500
H1103       H  0.70657962  0.07024811  0.63635534     0.19100
H1104       H  0.80313173  0.18108287  0.69843409     0.19100
C1105       C  0.49624913  0.40706170  0.66820342    -0.06700
C1106       C  0.52305211  0.40430775  0.64750526    -0.17900
C1107       C  0.52253485  0.37190832  0.64526227     0.10500
C1108       C  0.49525317  0.34163036  0.66546916    -0.06700
C1109       C  0.96854073  0.34520145  0.68025047    -0.17900
C1110       C  0.96788871  0.37703719  0.68324740     0.10500
S1111       S  0.55628320  0.37069841  0.61414021    -0.32900
S1112       S  0.92995896  0.37505605  0.70850989    -0.32900
H1113       H  0.95028666  0.40635746  0.73153821     0.28500
H1114       H  0.53301170  0.33726194  0.59658114     0.28500
H1115       H  0.54397074  0.42733401  0.63176198     0.19100
H1116       H  0.94628245  0.32099449  0.69238799     0.19100
C1117       C  0.49813993  0.09313985  0.67041812    -0.06700
C1118       C  0.97326279  0.09690338  0.64745173    -0.17900
C1119       C  0.97303917  0.12879802  0.64300412     0.10500
C1120       C  0.49614875  0.15701494  0.66293211    -0.06700
C1121       C  0.52500181  0.15675626  0.68216578    -0.17900
C1122       C  0.52615048  0.12528958  0.68648797     0.10500
S1123       S  0.94010128  0.12855990  0.60905003    -0.32900
S1124       S  0.56306336  0.12786809  0.71483687    -0.32900
H1125       H  0.54213090  0.09614157  0.73690071     0.28500
H1126       H  0.96333837  0.16212916  0.59173786     0.28500
H1127       H  0.95337391  0.07343894  0.63132798     0.19100
H1128       H  0.54631398  0.18105765  0.69538576     0.19100
C1129       C  0.74849289  0.24771124  0.87233987    -0.06700
C1130       C  0.71894283  0.22178803  0.85063315    -0.17900
C1131       C  0.71817695  0.22163601  0.80774163     0.10500
C1132       C  0.74794751  0.24784787  0.78554372    -0.06700
C1133       C  0.77768252  0.27344933  0.80749940    -0.17900
C1134       C  0.77845364  0.27344205  0.85034493     0.10500
S1135       S  0.67904860  0.18631933  0.78355823    -0.32900
S1136       S  0.81928668  0.30564027  0.87493570    -0.32900
H1137       H  0.81848778  0.28175292  0.90475153     0.28500
H1138       H  0.66883882  0.20996375  0.76725879     0.28500
H1139       H  0.69595927  0.20169575  0.86726585     0.19100
H1140       H  0.80090782  0.29346285  0.79116302     0.19100
C1141       C  0.75015295  0.49844975  0.88202591    -0.06700
C1142       C  0.78122328  0.02237233  0.86157740    -0.17900
C1143       C  0.78425761  0.02385451  0.81866306     0.10500
C1144       C  0.75450912  0.49918420  0.79534076    -0.06700
C1145       C  0.72293894  0.47496298  0.81572995    -0.17900
C1146       C  0.72032355  0.47456377  0.85850416     0.10500
S1147       S  0.82469423  0.05886387  0.79575262    -0.32900
S1148       S  0.67763113  0.44433275  0.88093283    -0.32900
H1149       H  0.67920864  0.46866476  0.91063713     0.28500
H1150       H  0.84192711  0.07620345  0.83226996     0.28500
H1151       H  0.80327952  0.04149743  0.88006770     0.19100
H1152       H  0.69972051  0.45648033  0.79817619     0.19100
C1153       C  0.90740898  0.25274985  0.99289957    -0.06700
C1154       C  0.90413029  0.27843456  0.01565823    -0.17900
C1155       C  0.87183450  0.27824905  0.01731892     0.10500
C1156       C  0.84228317  0.25235188  0.99479563    -0.06700
C1157       C  0.84593311  0.22727333  0.97121973    -0.17900
C1158       C  0.87818021  0.22749064  0.96955458     0.10500
S1159       S  0.86955638  0.31016082  0.05084948    -0.32900
S1160       S  0.88073987  0.19595915  0.93559039    -0.32900
H1161       H  0.91581929  0.21948769  0.92267928     0.28500
H1162       H  0.83569353  0.28590294  0.06656933     0.28500
H1163       H  0.92644517  0.29783274  0.03373372     0.19100
H1164       H  0.82366057  0.20777798  0.95316934     0.19100
C1165       C  0.58681695  0.24152327  0.99704230    -0.06700
C1166       C  0.58864894  0.21286842  0.01457383    -0.17900
C1167       C  0.62064928  0.21233896  0.01549514     0.10500
C1168       C  0.65175601  0.24108483  0.99820658    -0.06700
C1169       C  0.64959722  0.26929464  0.98001078    -0.17900
C1170       C  0.61756289  0.26943388  0.97831100     0.10500
S1171       S  0.62006374  0.17500113  0.04068682    -0.32900
S1172       S  0.61741047  0.30478015  0.94921610    -0.32900
H1173       H  0.58466767  0.28224442  0.92981329     0.28500
H1174       H  0.65179935  0.19611120  0.06257911     0.28500
H1175       H  0.56519785  0.19114351  0.02874591     0.19100
H1176       H  0.67289569  0.29099334  0.96556144     0.19100
C1177       C  0.49419776  0.23986540  0.87538085    -0.06700
C1178       C  0.51645314  0.27220635  0.85502429    -0.17900
C1179       C  0.51583340  0.27515725  0.81247516     0.10500
C1180       C  0.99498690  0.24954483  0.78704334    -0.06700
C1181       C  0.97819531  0.21665758  0.80738061    -0.17900
C1182       C  0.97956193  0.21476155  0.85017211     0.10500
S1183       S  0.54354271  0.31876554  0.79043100    -0.32900
S1184       S  0.95968031  0.17078013  0.87222361    -0.32900
H1185       H  0.99085107  0.17806407  0.89350135     0.28500
H1186       H  0.51868564  0.31527761  0.76041655     0.28500
H1187       H  0.53414304  0.29589468  0.87240453     0.19100
H1188       H  0.96514214  0.19219388  0.78965024     0.19100
C1189       C  0.90354040  0.49523143  0.00418905    -0.06700
C1190       C  0.90241379  0.52267340  0.02587366    -0.17900
C1191       C  0.87085086  0.52374216  0.02940416     0.10500
C1192       C  0.83974505  0.49750945  0.00952693    -0.06700
C1193       C  0.83795475  0.96335403  0.99211038    -0.17900
C1194       C  0.86969632  0.96247147  0.98962021     0.10500
S1195       S  0.87162772  0.55799903  0.06158533    -0.32900
S1196       S  0.86884807  0.92668686  0.96047026    -0.32900
H1197       H  0.90106308  0.94877637  0.93994333     0.28500
H1198       H  0.83752328  0.53597655  0.07825106     0.28500
H1199       H  0.92610422  0.54292472  0.04128195     0.19100
H1200       H  0.81448137  0.94281553  0.97664136     0.19100
C1201       C  0.59188065  0.50188585  0.00363366    -0.06700
C1202       C  0.62129404  0.02920108  0.98476265    -0.17900
C1203       C  0.65353783  0.02923865  0.98180602     0.10500
C1204       C  0.65759394  0.50329762  0.00138791    -0.06700
C1205       C  0.62874202  0.47692422  0.02368734    -0.17900
C1206       C  0.59625753  0.47618342  0.02548605     0.10500
S1207       S  0.68783581  0.06288404  0.94990105    -0.32900
S1208       S  0.56216598  0.44288295  0.05798260    -0.32900
H1209       H  0.55049554  0.46565787  0.07336105     0.28500
H1210       H  0.69829016  0.03976954  0.93259014     0.28500
H1211       H  0.61830022  0.04932150  0.96837352     0.19100
H1212       H  0.63181185  0.45723434  0.04094935     0.19100
C1213       C  0.49890322  0.00149704  0.88234149    -0.06700
C1214       C  0.96480714  0.47720534  0.85867934    -0.17900
C1215       C  0.96300618  0.47833457  0.81592193     0.10500
C1216       C  0.49553283  0.99962154  0.79569588    -0.06700
C1217       C  0.52704859  0.02388550  0.81628474    -0.17900
C1218       C  0.52905633  0.02508345  0.85923742     0.10500
S1219       S  0.91937582  0.45319333  0.79342978    -0.32900
S1220       S  0.57080739  0.05517228  0.88407656    -0.32900
H1221       H  0.59084440  0.07000994  0.84819892     0.28500
H1222       H  0.92130626  0.48348494  0.77491781     0.28500
H1223       H  0.94055380  0.46149233  0.87595714     0.19100
H1224       H  0.55028683  0.04196052  0.79867623     0.19100
C1225       C  0.75132221  0.24597882  0.45210586    -0.06700
C1226       C  0.78246942  0.25189588  0.47211494    -0.17900
C1227       C  0.78540519  0.25439531  0.51504897     0.10500
C1228       C  0.75608712  0.25021348  0.53856162    -0.06700
C1229       C  0.72492946  0.24401066  0.51820269    -0.17900
C1230       C  0.72209838  0.24145926  0.47562772     0.10500
S1231       S  0.82631113  0.26196711  0.53876633    -0.32900
S1232       S  0.67966758  0.23024573  0.45346268    -0.32900
H1233       H  0.68044244  0.20700697  0.42388108     0.28500
H1234       H  0.84465339  0.26362986  0.50250745     0.28500
H1235       H  0.80464640  0.25489554  0.45397987     0.19100
H1236       H  0.70213642  0.24049190  0.53561191     0.19100
C1237       C  0.74920348  0.24637828  0.11865429    -0.06700
C1238       C  0.74173051  0.27017854  0.13949451    -0.17900
C1239       C  0.74089070  0.27099118  0.18243413     0.10500
C1240       C  0.74800777  0.24741274  0.20536337    -0.06700
C1241       C  0.75584367  0.22384509  0.18423207    -0.17900
C1242       C  0.75689337  0.22333210  0.14140768     0.10500
S1243       S  0.73197130  0.30329792  0.20668791    -0.32900
S1244       S  0.76994077  0.19393100  0.11785563    -0.32900
H1245       H  0.79073949  0.21813250  0.08697977     0.28500
H1246       H  0.72014476  0.31302662  0.17142559     0.28500
H1247       H  0.73627345  0.28811811  0.12188893     0.19100
H1248       H  0.76162545  0.20580671  0.20118917     0.19100
C1249       C  0.75828327  0.50773429  0.46121128    -0.06700
C1250       C  0.72533554  0.49360801  0.48098572    -0.17900
C1251       C  0.72256912  0.48997640  0.52362517     0.10500
C1252       C  0.75381016  0.50208312  0.54769764    -0.06700
C1253       C  0.78623468  0.01708587  0.52618174    -0.17900
C1254       C  0.78809020  0.01942703  0.48339372     0.10500
S1255       S  0.67824440  0.46919565  0.54459454    -0.32900
S1256       S  0.83161368  0.04093354  0.45999641    -0.32900
H1257       H  0.82283751  0.05667605  0.42770654     0.28500
H1258       H  0.68144274  0.44178126  0.56371288     0.28500
H1259       H  0.70133122  0.48426642  0.46288028     0.19100
H1260       H  0.81087919  0.02762765  0.54328248     0.19100
C1261       C  0.75119516  0.50441889  0.12858991    -0.06700
C1262       C  0.75316738  0.03008696  0.14827927    -0.17900
C1263       C  0.75634328  0.03325244  0.19096398     0.10500
C1264       C  0.75585028  0.50966025  0.21504436    -0.06700
C1265       C  0.75447459  0.48041009  0.19478679    -0.17900
C1266       C  0.75228992  0.47746859  0.15199045     0.10500
S1267       S  0.76615211  0.07538419  0.21311567    -0.32900
S1268       S  0.75305800  0.44015397  0.12808054    -0.32900
H1269       H  0.74835781  0.42028611  0.16400868     0.28500
H1270       H  0.79013166  0.07594205  0.24257412     0.28500
H1271       H  0.75580372  0.05248802  0.13061662     0.19100
H1272       H  0.75503287  0.45964202  0.21267012     0.19100
C1273       C  0.00196121  0.25541978  0.54130924    -0.06700
C1274       C  0.52428747  0.25029526  0.52304555    -0.17900
C1275       C  0.52742912  0.25178560  0.48041743     0.10500
C1276       C  0.50511081  0.25989029  0.45646589    -0.06700
C1277       C  0.98135465  0.26299878  0.47498203    -0.17900
C1278       C  0.97976221  0.26362365  0.51772924     0.10500
S1279       S  0.56092085  0.24355862  0.45908384    -0.32900
S1280       S  0.95012933  0.27684073  0.54019618    -0.32900
H1281       H  0.97345462  0.29691400  0.57209406     0.28500
H1282       H  0.53543664  0.21081176  0.44176160     0.28500
H1283       H  0.54144959  0.24390810  0.54090642     0.19100
H1284       H  0.96376158  0.26894963  0.45745216     0.19100
C1285       C  0.91214111  0.16195635  0.33624921    -0.06700
C1286       C  0.90857658  0.13347170  0.31232504    -0.17900
C1287       C  0.87630911  0.10145543  0.31044620     0.10500
C1288       C  0.84725552  0.09729130  0.33424843    -0.06700
C1289       C  0.85100260  0.12561210  0.35866016    -0.17900
C1290       C  0.88321930  0.15772450  0.36030029     0.10500
S1291       S  0.87341058  0.06800037  0.27517477    -0.32900
S1292       S  0.88624390  0.19141659  0.39527461    -0.32900
H1293       H  0.92143994  0.20283102  0.40752113     0.28500
H1294       H  0.83870199  0.05757121  0.26182958     0.28500
H1295       H  0.93064356  0.13664514  0.29368033     0.19100
H1296       H  0.82901930  0.12232301  0.37757784     0.19100
C1297       C  0.66465275  0.41626077  0.33749299    -0.06700
C1298       C  0.63342088  0.41760561  0.33008210    -0.17900
C1299       C  0.60028997  0.38661814  0.32608404     0.10500
C1300       C  0.59765998  0.35282515  0.33039323    -0.06700
C1301       C  0.62891677  0.35151124  0.33766424    -0.17900
C1302       C  0.66200798  0.38245633  0.34171834     0.10500
S1303       S  0.56302042  0.39261560  0.31439680    -0.32900
S1304       S  0.69916643  0.37632607  0.35362868    -0.32900
H1305       H  0.71015639  0.39981282  0.38730809     0.28500
H1306       H  0.55147786  0.36852374  0.28128303     0.28500
H1307       H  0.63477427  0.44312443  0.32635506     0.19100
H1308       H  0.62760721  0.32600945  0.34145615     0.19100
C1309       C  0.49851447  0.25137789  0.20938576    -0.06700
C1310       C  0.00660616  0.28372396  0.18691493    -0.17900
C1311       C  0.00747621  0.28526872  0.14401179     0.10500
C1312       C  0.49533487  0.24834318  0.12252474    -0.06700
C1313       C  0.50051562  0.22372928  0.14499766    -0.17900
C1314       C  0.50177881  0.22464292  0.18789491     0.10500
S1315       S  0.01605320  0.32661515  0.12098820    -0.32900
S1316       S  0.50605465  0.18985400  0.21292444    -0.32900
H1317       H  0.47906741  0.18235867  0.24177745     0.28500
H1318       H  0.04841894  0.33305083  0.10354774     0.28500
H1319       H  0.01174314  0.30720847  0.20418663     0.19100
H1320       H  0.50359699  0.20350470  0.12897574     0.19100
C1321       C  0.49956805  0.00111515  0.54857180    -0.06700
C1322       C  0.97302556  0.50469596  0.52446955    -0.17900
C1323       C  0.97037560  0.50197215  0.48174500     0.10500
C1324       C  0.49822440  0.49964987  0.45811236    -0.06700
C1325       C  0.52450193  0.99868233  0.48264731    -0.17900
C1326       C  0.52692117  0.00064344  0.52541427     0.10500
S1327       S  0.93202939  0.50086898  0.45880651    -0.32900
S1328       S  0.56482374  0.00097861  0.54837032    -0.32900
H1329       H  0.57857500  0.03577888  0.56385364     0.28500
H1330       H  0.92469977  0.47230019  0.43235227     0.28500
H1331       H  0.95272722  0.50688342  0.54149242     0.19100
H1332       H  0.54570274  0.99838433  0.46534005     0.19100
C1333       C  0.84110102  0.33948738  0.33110397    -0.06700
C1334       C  0.84426648  0.36816976  0.30779681    -0.17900
C1335       C  0.87610649  0.40087183  0.30702766     0.10500
C1336       C  0.90520008  0.40547948  0.33115212    -0.06700
C1337       C  0.90190850  0.37677639  0.35450539    -0.17900
C1338       C  0.87020601  0.34410995  0.35511409     0.10500
S1339       S  0.87849318  0.43466416  0.27274623    -0.32900
S1340       S  0.86794540  0.31024825  0.38914116    -0.32900
H1341       H  0.83325966  0.29962840  0.40252919     0.28500
H1342       H  0.91330325  0.44570573  0.25925565     0.28500
H1343       H  0.82217477  0.36470285  0.28896041     0.19100
H1344       H  0.92390182  0.38011847  0.37343951     0.19100
C1345       C  0.65676676  0.15346401  0.33119666    -0.06700
C1346       C  0.62917344  0.15213894  0.35500737    -0.17900
C1347       C  0.59682443  0.12047703  0.35976100     0.10500
C1348       C  0.59126708  0.08940557  0.33920662    -0.06700
C1349       C  0.61886611  0.09062602  0.31550829    -0.17900
C1350       C  0.65129151  0.12230545  0.31083074     0.10500
S1351       S  0.56458425  0.12115568  0.39410569    -0.32900
S1352       S  0.68348591  0.12163516  0.27641812    -0.32900
H1353       H  0.69408580  0.15527812  0.25913258     0.28500
H1354       H  0.55323341  0.08709980  0.41064430     0.28500
H1355       H  0.63317123  0.17578209  0.37110480     0.19100
H1356       H  0.61465014  0.06701609  0.29911839     0.19100
C1357       C  0.49730986  0.99738131  0.12904863    -0.06700
C1358       C  0.01153776  0.02746645  0.14938283    -0.17900
C1359       C  0.01413870  0.02963168  0.19209864     0.10500
C1360       C  0.49978229  0.99983321  0.21569339    -0.06700
C1361       C  0.48706440  0.46622578  0.19106259    -0.17900
C1362       C  0.48415192  0.46444343  0.14833387     0.10500
S1363       S  0.03581305  0.07344288  0.21502115    -0.32900
S1364       S  0.46295658  0.42043538  0.12615612    -0.32900
H1365       H  0.43667673  0.42490833  0.10618871     0.28500
H1366       H  0.05180558  0.06485712  0.24718017     0.28500
H1367       H  0.02229061  0.05205946  0.13206911     0.19100
H1368       H  0.47683838  0.44173189  0.20853645     0.19100
O1369       O  0.96931155  0.94018588  0.33989217    -0.72400
O1370       O  0.55725483  0.52550394  0.33413043    -0.72600
O1371       O  0.51108199  0.98366143  0.39713523    -0.72500
O1372       O  0.51132188  0.98286665  0.28074255    -0.72500
O1373       O  0.98750042  0.51399680  0.27654398    -0.72400
O1374       O  0.98181030  0.51123686  0.39251713    -0.72500
O1375       O  0.53021903  0.55624227  0.33601204    -0.72400
O1376       O  0.94077690  0.96925801  0.33382417    -0.72600
V1377       V  0.51073340  0.98381159  0.33891016     1.35200
V1378       V  0.98506919  0.51185473  0.33455664     1.35200
C1379       C  0.94021284  0.93982552  0.33544916     0.76800
C1380       C  0.55894039  0.55546657  0.33525160     0.76900
C1381       C  0.49595107  0.99768448  0.41657175     0.76800
C1382       C  0.50063719  0.49855695  0.25669933     0.76700
O1383       O  0.56151951  0.78552406  0.32791070    -0.72400
O1384       O  0.97827899  0.70013629  0.33176519    -0.72600
O1385       O  0.51563665  0.73875168  0.27305873    -0.72500
O1386       O  0.52199490  0.74312385  0.38930589    -0.72500
O1387       O  0.99542321  0.77596920  0.38716157    -0.72400
O1388       O  0.99170995  0.76970849  0.27087573    -0.72500
O1389       O  0.94988999  0.72961180  0.33250864    -0.72400
O1390       O  0.53137275  0.81287320  0.33225908    -0.72600
V1391       V  0.51839120  0.74157515  0.33120427     1.35200
V1392       V  0.99424906  0.77241683  0.32904243     1.35200
C1393       C  0.56117777  0.81450211  0.33004620     0.76800
C1394       C  0.94919424  0.70012389  0.33346081     0.76900
C1395       C  0.50055102  0.75298046  0.25398965     0.76800
C1396       C  0.50651247  0.75608653  0.40995979     0.76700
O1397       O  0.78694317  0.56750635  0.33942692    -0.72400
O1398       O  0.69688141  0.97579378  0.33756371    -0.72600
O1399       O  0.74331121  0.52264072  0.39719013    -0.72500
O1400       O  0.74290260  0.52465654  0.28098354    -0.72500
O1401       O  0.76742150  0.98928508  0.27921333    -0.72400
O1402       O  0.77154677  0.99242296  0.39547459    -0.72500
O1403       O  0.72588331  0.94717177  0.33945115    -0.72400
O1404       O  0.81569543  0.53846179  0.33612853    -0.72600
V1405       V  0.74376465  0.52314858  0.33909490     1.35200
V1406       V  0.76885242  0.99128779  0.33733096     1.35200
C1407       C  0.81616516  0.56783142  0.33680924     0.76800
C1408       C  0.69644451  0.94637977  0.33858942     0.76900
C1409       C  0.75875905  0.50880012  0.41618149     0.76800
C1410       C  0.75669821  0.50997189  0.26036269     0.76700
O1411       O  0.72293496  0.68741179  0.32345516    -0.72400
O1412       O  0.80970564  0.77584155  0.32521696    -0.72600
O1413       O  0.76683441  0.73057418  0.38235916    -0.72500
O1414       O  0.76617397  0.73289899  0.26593437    -0.72500
O1415       O  0.73577398  0.76018283  0.26781415    -0.72400
O1416       O  0.73790984  0.75949649  0.38397588    -0.72500
O1417       O  0.78003001  0.80402250  0.32564554    -0.72400
O1418       O  0.69357291  0.71582375  0.32647137    -0.72600
V1419       V  0.76582792  0.73218906  0.32417878     1.35200
V1420       V  0.73739132  0.75930674  0.32588675     1.35200
C1421       C  0.69342594  0.68660859  0.32501033     0.76800
C1422       C  0.80956991  0.80494402  0.32650515     0.76900
C1423       C  0.75260378  0.74484744  0.40296310     0.76800
C1424       C  0.75096385  0.74706492  0.24693345     0.76700
O1425       O  0.96682452  0.52425995  0.00235408    -0.72400
O1426       O  0.55600983  0.52924723  0.00290812    -0.72600
O1427       O  0.51267355  0.52844961  0.94390675    -0.72500
O1428       O  0.51022555  0.52633156  0.06030158    -0.72500
O1429       O  0.98370091  0.96601716  0.06288383    -0.72400
O1430       O  0.98209029  0.96680660  0.94668941    -0.72500
O1431       O  0.52900978  0.97244348  0.00444036    -0.72400
O1432       O  0.93788280  0.96360367  0.00620341    -0.72600
V1433       V  0.51090519  0.52636690  0.00206045     1.35200
V1434       V  0.98343458  0.96754017  0.00485920     1.35200
C1435       C  0.93569517  0.99161192  0.00606630     0.75600
C1436       C  0.55799143  0.00177671  0.00594050     0.76900
C1437       C  0.49875757  0.49974337  0.92357352     0.76800
C1438       C  0.49700877  0.49704273  0.07952809     0.76700
O1439       O  0.51356233  0.77624368  0.93865587    -0.72400
O1440       O  0.51445314  0.78076890  0.05483523    -0.72600
O1441       O  0.55741518  0.77806228  0.99740815    -0.72500
O1442       O  0.96831038  0.77351950  0.99325516    -0.72500
O1443       O  0.93887910  0.71572632  0.99748074    -0.72400
O1444       O  0.52808284  0.72024321  0.99879159    -0.72500
O1445       O  0.98404400  0.71739487  0.05548054    -0.72400
O1446       O  0.98052330  0.71331473  0.93863971    -0.72600
V1447       V  0.51353106  0.77748496  0.99674773     1.35200
V1448       V  0.98282611  0.71630634  0.99697810     1.35200
C1449       C  0.49789133  0.74663019  0.92004676     0.76800
C1450       C  0.50042492  0.75270518  0.07626759     0.76900
C1451       C  0.55762121  0.74902309  0.99705883     0.76800
C1452       C  0.93879741  0.74474645  0.99423020     0.76700
O1453       O  0.77370816  0.96556522  0.00700223    -0.72400
O1454       O  0.68942046  0.97125514  0.00331607    -0.72600
O1455       O  0.73256895  0.96786032  0.94676890    -0.72500
O1456       O  0.73077456  0.96915541  0.06305906    -0.72500
O1457       O  0.76328224  0.53162873  0.06246286    -0.72400
O1458       O  0.76549538  0.52857284  0.94626725    -0.72500
O1459       O  0.72123234  0.53147761  0.00159166    -0.72400
O1460       O  0.80717497  0.52855277  0.00714066    -0.72600
V1461       V  0.73218798  0.96958942  0.00495603     1.35200
V1462       V  0.76368196  0.52896553  0.00437588     1.35200
C1463       C  0.80383998  0.99354456  0.00897414     0.76800
C1464       C  0.69066361  0.00102178  0.00179848     0.76900
C1465       C  0.74903371  0.99655885  0.92661664     0.76800
C1466       C  0.74628083  0.99817226  0.08268913     0.76700
O1467       O  0.80667628  0.77655073  0.99102371    -0.72400
O1468       O  0.71885355  0.77552306  0.99298506    -0.72600
O1469       O  0.76333190  0.77561952  0.04993209    -0.72500
O1470       O  0.76253366  0.77670564  0.93378990    -0.72500
O1471       O  0.73380739  0.71880143  0.93281198    -0.72400
O1472       O  0.73525818  0.71770262  0.04931017    -0.72500
O1473       O  0.69046321  0.71767099  0.99241799    -0.72400
O1474       O  0.77821519  0.71866591  0.98994835    -0.72600
V1475       V  0.76224528  0.77496869  0.99184557     1.35200
V1476       V  0.73492124  0.71931850  0.99108438     1.35200
C1477       C  0.80742383  0.74776198  0.99093006     0.76800
C1478       C  0.68962334  0.74638456  0.99373615     0.76900
C1479       C  0.74995881  0.74653695  0.06943642     0.76800
C1480       C  0.74871264  0.74803690  0.91345645     0.76700
O1481       O  0.52534078  0.97008843  0.67394096    -0.72400
O1482       O  0.53019602  0.55950420  0.66966178    -0.72600
O1483       O  0.52712687  0.51414471  0.72742399    -0.72500
O1484       O  0.53034159  0.51583031  0.61115018    -0.72500
O1485       O  0.96913454  0.98972741  0.61234056    -0.72400
O1486       O  0.96512133  0.98540723  0.72873562    -0.72500
O1487       O  0.96883186  0.53128372  0.66968485    -0.72400
O1488       O  0.96465420  0.94284595  0.66877256    -0.72600
V1489       V  0.52761912  0.51446823  0.66928698     1.35200
V1490       V  0.96810581  0.98806206  0.67054518     1.35200
C1491       C  0.49619213  0.94093248  0.67198260     0.76800
C1492       C  0.50165522  0.56063056  0.67009943     0.76900
C1493       C  0.49773164  0.49936224  0.74634005     0.76800
C1494       C  0.50207145  0.50308237  0.59024880     0.76700
O1495       O  0.96326510  0.77806695  0.66313788    -0.72400
O1496       O  0.96549159  0.69189957  0.65885104    -0.72600
O1497       O  0.96195243  0.73164868  0.71938470    -0.72500
O1498       O  0.96718948  0.73845763  0.60277388    -0.72500
O1499       O  0.52946181  0.76622940  0.60814228    -0.72400
O1500       O  0.52603625  0.76451682  0.72403599    -0.72500
O1501       O  0.52835057  0.72194828  0.66622109    -0.72400
O1502       O  0.52691004  0.80855584  0.66607370    -0.72600
V1503       V  0.96552763  0.73554719  0.66112402     1.35200
V1504       V  0.52654517  0.76470620  0.66609617     1.35200
C1505       C  0.49786256  0.80863917  0.66492636     0.76800
C1506       C  0.49968388  0.69239542  0.66434771     0.76900
C1507       C  0.99011093  0.74715318  0.74061059     0.76800
C1508       C  0.99711903  0.75367829  0.58492096     0.76700
O1509       O  0.78316697  0.51302913  0.72942004    -0.72400
O1510       O  0.78252746  0.51507447  0.61313739    -0.72600
O1511       O  0.78411049  0.55848043  0.67269056    -0.72500
O1512       O  0.78330511  0.97084739  0.66846768    -0.72500
O1513       O  0.72549214  0.94224356  0.66957319    -0.72400
O1514       O  0.72634226  0.53064097  0.67273557    -0.72500
O1515       O  0.72526345  0.98704704  0.61318999    -0.72400
O1516       O  0.72652969  0.98525483  0.72934201    -0.72600
V1517       V  0.78176260  0.51357604  0.67126688     1.35200
V1518       V  0.72701535  0.98669719  0.67121085     1.35200
C1519       C  0.75557570  0.99936301  0.74895664     0.76800
C1520       C  0.75372543  0.00139782  0.59262787     0.76900
C1521       C  0.75561964  0.55968933  0.67278258     0.76800
C1522       C  0.75425574  0.94159048  0.66843148     0.76700
O1523       O  0.72384619  0.73522575  0.71432299    -0.72400
O1524       O  0.72891253  0.73717924  0.59864921    -0.72600
O1525       O  0.72696007  0.69286741  0.65692963    -0.72500
O1526       O  0.72595761  0.77974144  0.65609459    -0.72500
O1527       O  0.78377424  0.80923828  0.65818505    -0.72400
O1528       O  0.78463278  0.72218964  0.66075676    -0.72500
O1529       O  0.78656606  0.76597360  0.60124340    -0.72400
O1530       O  0.78145574  0.76523463  0.71776468    -0.72600
V1531       V  0.72757963  0.73686282  0.65650663     1.35200
V1532       V  0.78304315  0.76513428  0.65946442     1.35200
C1533       C  0.75166060  0.74966954  0.73595578     0.76800
C1534       C  0.75839422  0.75152316  0.58000978     0.76900
C1535       C  0.75591296  0.69264474  0.65892221     0.76800
C1536       C  0.75470404  0.80927653  0.65674534     0.76700
C1537       C  0.75406450  0.90756244  0.66616778    -0.06700
C1538       C  0.77929638  0.90562234  0.64099730    -0.17900
C1539       C  0.77929366  0.87357557  0.63592920     0.10500
C1540       C  0.75411121  0.84290828  0.65736867    -0.06700
C1541       C  0.72864440  0.84474158  0.68210568    -0.17900
C1542       C  0.72860525  0.87672669  0.68715489     0.10500
S1543       S  0.81078439  0.87314253  0.60014167    -0.32900
S1544       S  0.69678668  0.87680821  0.72267829    -0.32900
H1545       H  0.72042692  0.91054889  0.73932444     0.28500
H1546       H  0.78785031  0.83834367  0.58572150     0.28500
H1547       H  0.79847265  0.92897719  0.62415277     0.19100
H1548       H  0.70950184  0.82139936  0.69900002     0.19100
C1549       C  0.75613265  0.59397950  0.67084142    -0.06700
C1550       C  0.72865476  0.59493141  0.64920751    -0.17900
C1551       C  0.72872357  0.62685732  0.64312713     0.10500
C1552       C  0.75622194  0.65873935  0.66043540    -0.06700
C1553       C  0.78388916  0.65787888  0.68180416    -0.17900
C1554       C  0.78403065  0.62595746  0.68747651     0.10500
S1555       S  0.69416718  0.62523540  0.61087037    -0.32900
S1556       S  0.81953139  0.62769541  0.71795880    -0.32900
H1557       H  0.79742885  0.59570226  0.73899452     0.28500
H1558       H  0.71688597  0.65730896  0.59025768     0.28500
H1559       H  0.70757714  0.57075741  0.63539977     0.19100
H1560       H  0.80501309  0.68208555  0.69549172     0.19100
C1561       C  0.49580625  0.90667465  0.67093962    -0.06700
C1562       C  0.52540523  0.90637155  0.65408117    -0.17900
C1563       C  0.52622187  0.87471775  0.65004998     0.10500
C1564       C  0.49729710  0.84242442  0.66462584    -0.06700
C1565       C  0.96224898  0.84226644  0.67971603    -0.17900
C1566       C  0.96192137  0.87422712  0.68342340     0.10500
S1567       S  0.56403876  0.87730914  0.62382560    -0.32900
S1568       S  0.92439448  0.87249059  0.70938017    -0.32900
H1569       H  0.94525034  0.90336405  0.73282334     0.28500
H1570       H  0.54360871  0.84612165  0.60063094     0.28500
H1571       H  0.54769344  0.93087218  0.64256866     0.19100
H1572       H  0.94028323  0.81810693  0.69240398     0.19100
C1573       C  0.50180143  0.59463458  0.67016951    -0.06700
C1574       C  0.96998151  0.59535986  0.64738771    -0.17900
C1575       C  0.96898931  0.62689775  0.64310776     0.10500
C1576       C  0.50027161  0.65872041  0.66459805    -0.06700
C1577       C  0.52775465  0.65750348  0.68600298    -0.17900
C1578       C  0.52857397  0.62576578  0.68947419     0.10500
S1579       S  0.93446887  0.62535269  0.61085523    -0.32900
S1580       S  0.56317329  0.62643070  0.72079301    -0.32900
H1581       H  0.54107660  0.59281602  0.73867005     0.28500
H1582       H  0.95692980  0.65816056  0.59148710     0.28500
H1583       H  0.94999622  0.57157514  0.63184439     0.19100
H1584       H  0.54812016  0.68117117  0.70134573     0.19100
C1585       C  0.75003338  0.74863593  0.86817614    -0.06700
C1586       C  0.72102984  0.72201916  0.84635190    -0.17900
C1587       C  0.72034052  0.72189683  0.80345367     0.10500
C1588       C  0.74969132  0.74877715  0.78137249    -0.06700
C1589       C  0.77880627  0.77515917  0.80337001    -0.17900
C1590       C  0.77948400  0.77523081  0.84619989     0.10500
S1591       S  0.68193729  0.68582110  0.77905487    -0.32900
S1592       S  0.81963958  0.80881758  0.87069523    -0.32900
H1593       H  0.82052786  0.78538266  0.89995347     0.28500
H1594       H  0.67067066  0.70862627  0.76271961     0.28500
H1595       H  0.69838721  0.70132695  0.86288887     0.19100
H1596       H  0.80164720  0.79578622  0.78704851     0.19100
C1597       C  0.75020689  0.99645892  0.88125353    -0.06700
C1598       C  0.78177401  0.52245464  0.86193605    -0.17900
C1599       C  0.78446921  0.52316446  0.81903846     0.10500
C1600       C  0.75539916  0.99865324  0.79454686    -0.06700
C1601       C  0.72451204  0.97253756  0.81443980    -0.17900
C1602       C  0.72144397  0.97139070  0.85717256     0.10500
S1603       S  0.82602356  0.55577315  0.79569764    -0.32900
S1604       S  0.67935275  0.93855156  0.87871903    -0.32900
H1605       H  0.67805320  0.96198193  0.90767922     0.28500
H1606       H  0.84523966  0.57059646  0.83207913     0.28500
H1607       H  0.80458286  0.54070686  0.88014727     0.19100
H1608       H  0.70212930  0.95311345  0.79651612     0.19100
C1609       C  0.90519168  0.74533726  0.99186608    -0.06700
C1610       C  0.90380719  0.77387905  0.01028137    -0.17900
C1611       C  0.87228219  0.77512803  0.01115025     0.10500
C1612       C  0.84141646  0.74776116  0.99194328    -0.06700
C1613       C  0.84293705  0.71940382  0.97309112    -0.17900
C1614       C  0.87443326  0.71805949  0.97243350     0.10500
S1615       S  0.87282887  0.81105597  0.03968621    -0.32900
S1616       S  0.87391251  0.68181077  0.94457287    -0.32900
H1617       H  0.90765294  0.70301246  0.92669439     0.28500
H1618       H  0.84017309  0.78902908  0.05949783     0.28500
H1619       H  0.92716679  0.79475850  0.02557387     0.19100
H1620       H  0.81958627  0.69847005  0.95785262     0.19100
C1621       C  0.59145530  0.74856031  0.99491494    -0.06700
C1622       C  0.59224482  0.71871743  0.01040688    -0.17900
C1623       C  0.62375014  0.71734403  0.01117833     0.10500
C1624       C  0.65550193  0.74629586  0.99541885    -0.06700
C1625       C  0.65463088  0.77601828  0.97969103    -0.17900
C1626       C  0.62308308  0.77722673  0.97851282     0.10500
S1627       S  0.62165326  0.67859811  0.03450378    -0.32900
S1628       S  0.62488501  0.81516616  0.95330719    -0.32900
H1629       H  0.59324734  0.79464316  0.93097966     0.28500
H1630       H  0.65302850  0.69833662  0.05751253     0.28500
H1631       H  0.56829542  0.69658169  0.02315785     0.19100
H1632       H  0.67854068  0.79812097  0.96681519     0.19100
C1633       C  0.49706916  0.74561148  0.87450908    -0.06700
C1634       C  0.51970875  0.77742775  0.85352807    -0.17900
C1635       C  0.51928375  0.77950800  0.81088977     0.10500
C1636       C  0.98913383  0.74567591  0.78564906    -0.06700
C1637       C  0.97475866  0.71245034  0.80510282    -0.17900
C1638       C  0.97768370  0.70994802  0.84766866     0.10500
S1639       S  0.54810353  0.82238050  0.78776596    -0.32900
S1640       S  0.96192673  0.66599080  0.86832446    -0.32900
H1641       H  0.99364504  0.67605454  0.89000021     0.28500
H1642       H  0.52359794  0.81905836  0.75736874     0.28500
H1643       H  0.53775747  0.80127633  0.87044682     0.19100
H1644       H  0.96277486  0.68833587  0.78674546     0.19100
C1645       C  0.90095266  0.99007928  0.00794979    -0.06700
C1646       C  0.89909744  0.01711870  0.02960338    -0.17900
C1647       C  0.86727300  0.01764021  0.03265326     0.10500
C1648       C  0.83663925  0.99138520  0.01209185    -0.06700
C1649       C  0.84062966  0.46959486  0.98872029    -0.17900
C1650       C  0.87206941  0.46828432  0.98554734     0.10500
S1651       S  0.86715556  0.05141507  0.06493207    -0.32900
S1652       S  0.87051278  0.43270964  0.95525803    -0.32900
H1653       H  0.90332615  0.45457764  0.93582536     0.28500
H1654       H  0.83263933  0.02912048  0.08039962     0.28500
H1655       H  0.92252486  0.03767123  0.04514168     0.19100
H1656       H  0.81692925  0.44930898  0.97336232     0.19100
C1657       C  0.59239812  0.00259026  0.00686557    -0.06700
C1658       C  0.62071716  0.52845105  0.98146883    -0.17900
C1659       C  0.65329512  0.52914060  0.97959438     0.10500
C1660       C  0.65733144  0.00243439  0.00206647    -0.06700
C1661       C  0.62859008  0.97631171  0.02473864    -0.17900
C1662       C  0.59658816  0.97643777  0.02794405     0.10500
S1663       S  0.68733318  0.56218658  0.94690650    -0.32900
S1664       S  0.56294157  0.94367632  0.06129820    -0.32900
H1665       H  0.55207203  0.96696502  0.07708965     0.28500
H1666       H  0.69832967  0.53899508  0.93111450     0.28500
H1667       H  0.61743890  0.54802132  0.96422356     0.19100
H1668       H  0.63141919  0.95614502  0.04125437     0.19100
C1669       C  0.49911400  0.50007191  0.87847740    -0.06700
C1670       C  0.96477645  0.97266941  0.86136463    -0.17900
C1671       C  0.96249182  0.97327102  0.81858489     0.10500
C1672       C  0.49693247  0.49895810  0.79187089    -0.06700
C1673       C  0.52860490  0.52191379  0.81301374    -0.17900
C1674       C  0.53002107  0.52276094  0.85596419     0.10500
S1675       S  0.92058174  0.94168654  0.79579842    -0.32900
S1676       S  0.57181146  0.55128584  0.88163767    -0.32900
H1677       H  0.59271525  0.56528751  0.84615871     0.28500
H1678       H  0.91497845  0.96855537  0.77943749     0.28500
H1679       H  0.94149289  0.95408681  0.87874103     0.19100
H1680       H  0.55244033  0.53936186  0.79582346     0.19100
C1681       C  0.75355892  0.74503867  0.44815215    -0.06700
C1682       C  0.78502947  0.75193575  0.46817796    -0.17900
C1683       C  0.78828436  0.75550158  0.51103809     0.10500
C1684       C  0.75879607  0.75092586  0.53451997    -0.06700
C1685       C  0.72727679  0.74357653  0.51413364    -0.17900
C1686       C  0.72423048  0.74021947  0.47164316     0.10500
S1687       S  0.82985754  0.76501317  0.53465981    -0.32900
S1688       S  0.68138593  0.72747914  0.44956188    -0.32900
H1689       H  0.68291330  0.70436098  0.42038915     0.28500
H1690       H  0.84927417  0.77015699  0.49826764     0.28500
H1691       H  0.80721183  0.75484501  0.45014087     0.19100
H1692       H  0.70432264  0.73973044  0.53147089     0.19100
C1693       C  0.75119001  0.74660544  0.11469123    -0.06700
C1694       C  0.74720334  0.77260155  0.13582506    -0.17900
C1695       C  0.74707999  0.77365453  0.17880674     0.10500
C1696       C  0.75082212  0.74777857  0.20143235    -0.06700
C1697       C  0.75535762  0.72211635  0.18009402    -0.17900
C1698       C  0.75604108  0.72152418  0.13724005     0.10500
S1699       S  0.74322420  0.80891002  0.20372314    -0.32900
S1700       S  0.76498845  0.68925887  0.11337449    -0.32900
H1701       H  0.78737061  0.71265760  0.08276661     0.28500
H1702       H  0.74596267  0.82862224  0.16825668     0.28500
H1703       H  0.74371790  0.79194927  0.11844751     0.19100
H1704       H  0.75875845  0.70244175  0.19693331     0.19100
C1705       C  0.75646443  0.00613660  0.46043950    -0.06700
C1706       C  0.72375426  0.99156705  0.48076486    -0.17900
C1707       C  0.72169046  0.98875609  0.52347566     0.10500
C1708       C  0.75339159  0.00196172  0.54699769    -0.06700
C1709       C  0.78687812  0.51647981  0.52745620    -0.17900
C1710       C  0.78942416  0.51941824  0.48472194     0.10500
S1711       S  0.67762591  0.96758376  0.54523114    -0.32900
S1712       S  0.83325374  0.53949991  0.46222026    -0.32900
H1713       H  0.82608874  0.55646147  0.42986195     0.28500
H1714       H  0.68155139  0.94057884  0.56428503     0.28500
H1715       H  0.69940569  0.98122491  0.46305451     0.19100
H1716       H  0.81117897  0.52597152  0.54497114     0.19100
C1717       C  0.74724641  0.99887671  0.12812863    -0.06700
C1718       C  0.75315340  0.53399399  0.14883177    -0.17900
C1719       C  0.75583303  0.53710597  0.19156449     0.10500
C1720       C  0.75313493  0.00439419  0.21452447    -0.06700
C1721       C  0.74782995  0.97347757  0.19449003    -0.17900
C1722       C  0.74452499  0.97022842  0.15188127     0.10500
S1723       S  0.76087280  0.57750483  0.21382306    -0.32900
S1724       S  0.73826374  0.92933340  0.12994456    -0.32900
H1725       H  0.70378881  0.91912606  0.11585843     0.28500
H1726       H  0.78706851  0.58151213  0.24222483     0.28500
H1727       H  0.75296285  0.55510167  0.13119541     0.19100
H1728       H  0.74546244  0.95123584  0.21227520     0.19100
C1729       C  0.00020197  0.75696922  0.53980178    -0.06700
C1730       C  0.52958570  0.75140754  0.52199462    -0.17900
C1731       C  0.53197859  0.75205308  0.47905575     0.10500
C1732       C  0.50685076  0.75623907  0.45548722    -0.06700
C1733       C  0.98112015  0.76533833  0.47271984    -0.17900
C1734       C  0.97741092  0.76385888  0.51542326     0.10500
S1735       S  0.56799963  0.74877402  0.45552538    -0.32900
S1736       S  0.94430483  0.77273048  0.53685518    -0.32900
H1737       H  0.96550053  0.79290580  0.57011536     0.28500
H1738       H  0.58117350  0.74149824  0.49145625     0.28500
H1739       H  0.54843224  0.74778501  0.54016582     0.19100
H1740       H  0.96290594  0.76985687  0.45438542     0.19100
C1741       C  0.91525085  0.66636891  0.33577450    -0.06700
C1742       C  0.91108628  0.63778554  0.31156339    -0.17900
C1743       C  0.87869569  0.60581241  0.31020598     0.10500
C1744       C  0.85006252  0.60170155  0.33480343    -0.06700
C1745       C  0.85424160  0.63026128  0.35911632    -0.17900
C1746       C  0.88658957  0.66237563  0.36021433     0.10500
S1747       S  0.87502445  0.57230233  0.27451601    -0.32900
S1748       S  0.89012366  0.69637423  0.39503384    -0.32900
H1749       H  0.92530311  0.70749876  0.40706630     0.28500
H1750       H  0.84013725  0.56208521  0.26208372     0.28500
H1751       H  0.93279858  0.64083207  0.29234862     0.19100
H1752       H  0.83252938  0.62715105  0.37839803     0.19100
C1753       C  0.66221817  0.91216942  0.33789465    -0.06700
C1754       C  0.63045427  0.91338649  0.33881354    -0.17900
C1755       C  0.59720137  0.88250863  0.33539875     0.10500
C1756       C  0.59515493  0.84895893  0.33118535    -0.06700
C1757       C  0.62693316  0.84780100  0.33048218    -0.17900
C1758       C  0.66008759  0.87854634  0.33437846     0.10500
S1759       S  0.55892862  0.88837899  0.33670134    -0.32900
S1760       S  0.69811853  0.87224943  0.33497500    -0.32900
H1761       H  0.70988291  0.88880928  0.37345852     0.28500
H1762       H  0.54566695  0.87093805  0.29894949     0.28500
H1763       H  0.63137521  0.93876916  0.34171543     0.19100
H1764       H  0.62613678  0.82246121  0.32775127     0.19100
C1765       C  0.49872346  0.75207842  0.20883178    -0.06700
C1766       C  0.00097438  0.77796427  0.18410917    -0.17900
C1767       C  0.99927702  0.77724023  0.14124259     0.10500
C1768       C  0.50063937  0.75388612  0.12195687    -0.06700
C1769       C  0.48984776  0.72187663  0.14348571    -0.17900
C1770       C  0.48853793  0.72059876  0.18634098     0.10500
S1771       S  0.99457955  0.81178812  0.11642356    -0.32900
S1772       S  0.47204584  0.67768094  0.21044367    -0.32900
H1773       H  0.45412871  0.68413552  0.24228548     0.28500
H1774       H  0.02948931  0.82852820  0.10078616     0.28500
H1775       H  0.00081802  0.79977416  0.20024777     0.19100
H1776       H  0.48196350  0.69735832  0.12687760     0.19100
C1777       C  0.50277788  0.50362940  0.54484785    -0.06700
C1778       C  0.97061770  0.00083901  0.52683561    -0.17900
C1779       C  0.96858600  0.99860080  0.48407110     0.10500
C1780       C  0.49578176  0.99791967  0.46190996    -0.06700
C1781       C  0.52524424  0.49715067  0.47896850    -0.17900
C1782       C  0.52803265  0.49946738  0.52174001     0.10500
S1783       S  0.92856104  0.99334109  0.46073817    -0.32900
S1784       S  0.56325417  0.49504399  0.54498982    -0.32900
H1785       H  0.58030049  0.53002753  0.56065314     0.28500
H1786       H  0.92491984  0.96674584  0.43309583     0.28500
H1787       H  0.94874065  0.00019911  0.54362647     0.19100
H1788       H  0.54479153  0.49382816  0.46178960     0.19100
C1789       C  0.84300800  0.83928997  0.32941114    -0.06700
C1790       C  0.84648155  0.86823054  0.30642538    -0.17900
C1791       C  0.87810663  0.90110510  0.30698197     0.10500
C1792       C  0.90657518  0.90565366  0.33226847    -0.06700
C1793       C  0.90300275  0.87669724  0.35528990    -0.17900
C1794       C  0.87153632  0.84381897  0.35447910     0.10500
S1795       S  0.88118261  0.93521113  0.27271955    -0.32900
S1796       S  0.86862158  0.80955003  0.38823377    -0.32900
H1797       H  0.83367173  0.79896866  0.40039912     0.28500
H1798       H  0.91630527  0.94641063  0.26032992     0.28500
H1799       H  0.82484497  0.86484624  0.28678886     0.19100
H1800       H  0.92453911  0.87998247  0.37503734     0.19100
C1801       C  0.65936810  0.65261986  0.32661268    -0.06700
C1802       C  0.63203007  0.65122606  0.35097666    -0.17900
C1803       C  0.59935115  0.61970288  0.35521088     0.10500
C1804       C  0.59362707  0.58874784  0.33429656    -0.06700
C1805       C  0.62105084  0.58995685  0.31023174    -0.17900
C1806       C  0.65358249  0.62160584  0.30563765     0.10500
S1807       S  0.56631616  0.61901511  0.38956807    -0.32900
S1808       S  0.68554971  0.62111796  0.27069427    -0.32900
H1809       H  0.69651932  0.65511074  0.25421514     0.28500
H1810       H  0.58094183  0.65621930  0.39172026     0.28500
H1811       H  0.63657365  0.67480142  0.36756739     0.19100
H1812       H  0.61659806  0.56641747  0.29353026     0.19100
C1813       C  0.49705740  0.49634665  0.12513309    -0.06700
C1814       C  0.01700497  0.52698604  0.14694843    -0.17900
C1815       C  0.01956670  0.52856553  0.18970503     0.10500
C1816       C  0.50136902  0.49884504  0.21168943    -0.06700
C1817       C  0.49084725  0.96815918  0.19490496    -0.17900
C1818       C  0.48901798  0.96635629  0.15212380     0.10500
S1819       S  0.04799918  0.57145059  0.21304026    -0.32900
S1820       S  0.47616700  0.92362821  0.12953454    -0.32900
H1821       H  0.44517258  0.92054162  0.11175703     0.28500
H1822       H  0.05894226  0.55831569  0.24601546     0.28500
H1823       H  0.03232017  0.55143188  0.12970508     0.19100
H1824       H  0.48426549  0.94426020  0.21223667     0.19100
loop_ 
_geom_bond_atom_site_label_1 
_geom_bond_atom_site_label_2 
_geom_bond_distance 
_geom_bond_site_symmetry_2 
_ccdc_geom_bond_type 
O1           C11   1.263       .  A
O1          V921   1.892       .  S
O2           C12   1.263       .  A
O2          V465   1.895   1_545  S
O3           C13   1.266   1_455  A
O3            V9   1.900       .  S
O4          C470   1.264       .  A
O4            V9   1.900       .  S
O5          C926   1.262   1_545  A
O5           V10   1.892       .  S
O6         C1381   1.263   1_545  A
O6           V10   1.894       .  S
O7           C12   1.263       .  A
O7          V922   1.891   1_455  S
O8           C11   1.265       .  A
O8          V466   1.901       .  S
V9          O913   1.891   1_455  S
V9          O458   1.895       .  S
V9         V1378   2.086   1_455  T
V10         O919   1.895       .  S
V10         O464   1.898   1_545  S
V10        V1377   2.087   1_545  T
C11         C424   1.476       .  S
C12         C436   1.470       .  S
C13        O1374   1.263       .  A
C13         C412   1.482       .  S
C14         O460   1.264       .  A
C14         O917   1.262   1_465  A
C14         C448   1.466       .  S
O15          C25   1.264       .  A
O15          V23   1.890       .  S
O16          C26   1.263       .  A
O16         V935   1.891       .  S
O17          C27   1.264       .  A
O17          V23   1.897       .  S
O18          C28   1.264       .  A
O18          V23   1.898       .  S
O19         C940   1.266       .  A
O19          V24   1.902       .  S
O20         C939   1.267       .  A
O20          V24   1.906       .  S
O21          C26   1.262       .  A
O21          V24   1.890       .  S
O22          C25   1.261       .  A
O22         V936   1.891   1_455  S
V23         O928   1.890   1_455  S
V23         V936   2.086   1_455  T
V24         O934   1.896       .  S
V24         V935   2.084       .  T
C25         C388   1.481       .  S
C26         C373   1.468       .  S
C27         O932   1.264   1_455  A
C27         C397   1.476       .  S
C28         O931   1.265   1_455  A
C28         C364   1.486       .  S
O29          C39   1.264       .  A
O29          V37   1.894       .  S
O30          C40   1.264       .  A
O30         V493   1.893       .  S
O31          C41   1.264       .  A
O31          V37   1.897       .  S
O32          C42   1.263       .  A
O32          V37   1.896       .  S
O33         C498   1.264       .  A
O33          V38   1.897       .  S
O34         C497   1.264       .  A
O34          V38   1.899       .  S
O35          C40   1.261       .  A
O35          V38   1.889       .  S
O36          C39   1.262       .  A
O36         V494   1.888   1_545  S
V37         O486   1.896   1_545  S
V37         V494   2.087   1_545  T
V38         O492   1.889       .  S
V38         V493   2.086       .  T
C39         C376   1.471       .  S
C40         C385   1.482       .  S
C41         O490   1.264   1_545  A
C41         C793   1.471       .  S
C42         O489   1.264   1_545  A
C42         C808   1.470       .  S
O43          C53   1.264       .  A
O43          V51   1.897       .  S
O44          C54   1.264       .  A
O44          V51   1.896       .  S
O45          C55   1.263       .  A
O45          V51   1.897       .  S
O46          C56   1.264       .  A
O46          V51   1.895       .  S
O47          C56   1.264       .  A
O47          V52   1.898       .  S
O48          C55   1.265       .  A
O48          V52   1.898       .  S
O49          C54   1.263       .  A
O49          V52   1.896       .  S
O50          C53   1.263       .  A
O50          V52   1.892       .  S
V51          V52   2.087       .  T
C53         C433   1.470       .  S
C54         C421   1.474       .  S
C55         C313   1.474       .  S
C56         C328   1.483       .  S
O57         C523   1.264   1_545  A
O57         V977   1.898       .  S
O58         C524   1.263   1_545  A
O58          V65   1.899       .  S
O59          C69   1.264   1_445  A
O59          V65   1.897   1_556  S
O60          C70   1.265   1_445  A
O60          V65   1.897       .  S
O61        C1438   1.261       .  A
O61          V66   1.891       .  S
O62        C1437   1.263       .  A
O62          V66   1.893   1_556  S
O63          C68   1.264       .  A
O63         V978   1.896   1_455  S
O64          C67   1.263       .  A
O64          V66   1.894       .  S
V65         O969   1.895   1_455  S
V65        V1434   2.086   1_445  T
V66         O975   1.893       .  S
V66        V1433   2.086       .  T
C67         O513   1.264       .  A
C67         C277   1.475       .  S
C68         O514   1.263       .  A
C68         C289   1.473       .  S
C69        O1430   1.263       .  A
C69         C301   1.473       .  S
C70        O1429   1.262       .  A
C70         C445   1.487       .  S
O71          C81   1.265   1_455  A
O71          V79   1.894       .  S
O72          C82   1.263   1_455  A
O72          V79   1.897   1_554  S
O73          C83   1.263       .  A
O73          V79   1.893       .  S
O74          C84   1.263       .  A
O74         V991   1.891       .  S
O75          C84   1.264       .  A
O75          V80   1.896   1_556  S
O76          C83   1.264       .  A
O76         V992   1.896   1_455  S
O77         C994   1.266       .  A
O77          V80   1.905       .  S
O78         C993   1.264       .  A
O78          V80   1.903   1_556  S
V79         O986   1.897   1_455  S
V79         V992   2.085   1_455  T
V80         O988   1.900       .  S
V80         V991   2.085   1_554  T
C81         O990   1.263       .  A
C81         C265   1.488       .  S
C82         O989   1.266       .  A
C82         C400   1.487   1_655  S
C83         C253   1.478       .  S
C84         C241   1.473       .  S
O85          C95   1.264       .  A
O85          V93   1.896       .  S
O86          C96   1.264   1_554  A
O86          V93   1.896       .  S
O87          C97   1.265       .  A
O87          V93   1.901   1_556  S
O88          C98   1.263       .  A
O88          V93   1.898       .  S
O89         C554   1.265       .  A
O89          V94   1.899       .  S
O90         C553   1.265   1_545  A
O90          V94   1.898   1_556  S
O91         C552   1.264       .  A
O91          V94   1.900       .  S
O92         C551   1.264   1_545  A
O92          V94   1.897       .  S
V93         V550   2.086       .  T
V94         V549   2.085   1_545  T
C95         O548   1.263       .  A
C95         C280   1.474       .  S
C96         O547   1.264       .  A
C96         C292   1.475       .  S
C97         O546   1.264       .  A
C97         C229   1.480       .  S
C98         O545   1.265       .  A
C98         C349   1.486       .  S
O99         C109   1.263       .  A
O99         V107   1.895       .  S
O100        C110   1.264       .  A
O100        V107   1.894       .  S
O101        C111   1.263       .  A
O101        V107   1.893   1_554  S
O102        C112   1.262       .  A
O102        V107   1.893       .  S
O103        C112   1.265       .  A
O103        V108   1.899       .  S
O104        C111   1.264       .  A
O104        V108   1.900   1_554  S
O105        C110   1.263       .  A
O105        V108   1.896       .  S
O106        C109   1.264       .  A
O106        V108   1.894       .  S
V107        V108   2.087       .  T
C109        C244   1.476       .  S
C110        C256   1.477       .  S
C111        C325   1.476       .  S
C112        C217   1.476       .  S
O113        C123   1.265   1_455  A
O113        V577   1.897       .  S
O114        C124   1.263   1_455  A
O114        V121   1.896       .  S
O115        C125   1.265   1_445  A
O115        V121   1.894       .  S
O116        C126   1.262   1_455  A
O116        V121   1.895       .  S
O117       C1494   1.265       .  A
O117        V122   1.897       .  S
O118       C1493   1.263       .  A
O118        V122   1.895       .  S
O119       C1036   1.263       .  A
O119        V578   1.890   1_545  S
O120       C1035   1.261       .  A
O120        V122   1.887       .  S
V121        O569   1.894   1_545  S
V121       V1490   2.085   1_445  T
V122        O575   1.884       .  S
V122       V1489   2.086       .  T
C123       O1032   1.261       .  A
C123        C193   1.475       .  S
C124       O1031   1.262       .  A
C124        C205   1.469       .  S
C125       O1486   1.264       .  A
C125        C304   1.487       .  S
C126       O1485   1.266   1_545  A
C126        C409   1.484       .  S
O127       C1049   1.264       .  A
O127        V135   1.896       .  S
O128       C1050   1.264       .  A
O128        V135   1.896       .  S
O129        C139   1.265       .  A
O129        V135   1.903       .  S
O130        C140   1.265       .  A
O130        V135   1.903       .  S
O131       C1052   1.263       .  A
O131        V136   1.895       .  S
O132       C1051   1.263   1_455  A
O132        V136   1.893       .  S
O133        C138   1.262   1_455  A
O133        V136   1.890       .  S
O134        C137   1.262   1_455  A
O134        V136   1.889       .  S
V135       V1048   2.088       .  T
V136       V1047   2.087   1_455  T
C137       O1039   1.265       .  A
C137        C196   1.477       .  S
C138       O1040   1.264       .  A
C138        C208   1.471       .  S
C139       O1044   1.263       .  A
C139        C268   1.474       .  S
C140       O1043   1.263       .  A
C140        C361   1.473       .  S
O141        C607   1.264       .  A
O141        V149   1.899       .  S
O142        C608   1.266       .  A
O142        V149   1.898       .  S
O143        C153   1.263       .  A
O143        V149   1.897       .  S
O144        C154   1.263       .  A
O144        V605   1.889       .  S
O145        C154   1.263       .  A
O145        V150   1.895       .  S
O146        C153   1.263       .  A
O146        V606   1.890   1_545  S
O147        C152   1.263       .  A
O147        V150   1.896       .  S
O148        C151   1.264       .  A
O148        V150   1.896       .  S
V149        O600   1.895   1_545  S
V149        V606   2.085   1_545  T
V150        O602   1.893       .  S
V150        V605   2.085       .  T
C151        O597   1.265       .  A
C151        C232   1.481       .  S
C152        O598   1.266       .  A
C152        C340   1.489       .  S
C153        C181   1.475       .  S
C154        C169   1.469       .  S
O155        C165   1.261       .  A
O155        V163   1.891       .  S
O156        C166   1.264       .  A
O156        V163   1.892       .  S
O157        C167   1.263       .  A
O157        V163   1.891       .  S
O158        C168   1.262       .  A
O158        V163   1.893       .  S
O159        C168   1.263       .  A
O159        V164   1.892       .  S
O160        C167   1.264       .  A
O160        V164   1.895       .  S
O161        C166   1.264       .  A
O161        V164   1.900       .  S
O162        C165   1.266       .  A
O162        V164   1.900       .  S
V163        V164   2.086       .  T
C165        C220   1.481       .  S
C166        C316   1.484       .  S
C167        C184   1.476       .  S
C168        C172   1.468       .  S
C169        C170   1.403       .  A
C169        C174   1.413       .  A
C170        C171   1.394       .  A
C170        H179   1.084       .  S
C171        C172   1.411       .  A
C171        S175   1.804       .  S
C172        C173   1.403       .  A
C173        C174   1.397       .  A
C173        H180   1.084       .  S
C174        S176   1.804       .  S
S175        H178   1.407       .  S
S176        H177   1.407       .  S
C181        C182   1.403       .  A
C181        C186   1.414       .  A
C182        C183   1.394       .  A
C182        H191   1.084       .  S
C183        C184   1.414       .  A
C183        S187   1.804       .  S
C184        C185   1.405       .  A
C185        C186   1.398       .  A
C185        H192   1.084       .  S
C186        S188   1.803       .  S
S187        H190   1.408       .  S
S188        H189   1.407       .  S
C193        C194   1.402   1_655  A
C193       C1110   1.415       .  A
C194        C195   1.396       .  A
C194        H203   1.084       .  S
C195        C196   1.416   1_455  A
C195        S199   1.803       .  S
C196       C1109   1.403       .  A
C197        C198   1.396       .  A
C197       C1108   1.402       .  A
C197        H204   1.084       .  S
C198       C1105   1.414       .  A
C198        S200   1.803       .  S
S199        H202   1.408       .  S
S200        H201   1.407       .  S
C205        C210   1.412   1_655  A
C205       C1118   1.403       .  A
C206        C207   1.396       .  A
C206       C1117   1.405       .  A
C206        H215   1.084       .  S
C207       C1120   1.413       .  A
C207        S211   1.803       .  S
C208        C209   1.405   1_655  A
C208       C1119   1.412       .  A
C209        C210   1.396       .  A
C209        H216   1.084       .  S
C210        S212   1.804       .  S
S211        H214   1.408       .  S
S212        H213   1.407       .  S
C217        C218   1.402       .  A
C217        C222   1.414       .  A
C218        C219   1.398       .  A
C218        H227   1.084       .  S
C219        C220   1.417       .  A
C219        S223   1.801       .  S
C220        C221   1.404       .  A
C221        C222   1.397       .  A
C221        H228   1.084       .  S
C222        S224   1.803       .  S
S223        H226   1.408       .  S
S224        H225   1.408       .  S
C229        C234   1.414       .  A
C229        C686   1.404       .  A
C230        C231   1.403       .  A
C230        C685   1.403   1_545  A
C230        H239   1.083       .  S
C231        C688   1.418       .  A
C231        S235   1.809       .  S
C232        C233   1.406       .  A
C232        C687   1.415       .  A
C233        C234   1.399       .  A
C233        H240   1.084       .  S
C234        S236   1.803       .  S
S235        H238   1.407       .  S
S236        H237   1.408       .  S
C241        C242   1.402   1_556  A
C241        C246   1.413       .  A
C242        C243   1.396       .  A
C242        H251   1.085       .  S
C243        C244   1.415   1_554  A
C243        S247   1.803       .  S
C244        C245   1.404       .  A
C245        C246   1.397       .  A
C245        H252   1.084       .  S
C246        S248   1.804       .  S
S247        H250   1.408       .  S
S248        H249   1.407       .  S
C253        C254   1.404   1_556  A
C253        C258   1.415       .  A
C254        C255   1.399       .  A
C254        H263   1.084       .  S
C255        C256   1.415   1_554  A
C255        S259   1.803       .  S
C256        C257   1.403       .  A
C257        C258   1.395       .  A
C257        H264   1.084       .  S
C258        S260   1.804       .  S
S259        H262   1.408       .  S
S260        H261   1.408       .  S
C265        C266   1.408   1_655  A
C265       C1182   1.421       .  A
C266        C267   1.395       .  A
C266        H275   1.084       .  S
C267       C1180   1.408   1_455  A
C267        S271   1.804       .  S
C268        C269   1.402       .  A
C268       C1179   1.410       .  A
C269        C270   1.402       .  A
C269        H276   1.084       .  S
C270       C1177   1.420       .  A
C270        S272   1.800       .  S
S271        H274   1.406       .  S
S272        H273   1.408       .  S
C277        C278   1.403       .  A
C277        C738   1.415   1_554  A
C278        C279   1.397       .  A
C278        H287   1.084       .  S
C279        C280   1.414       .  A
C279        S283   1.804       .  S
C280        C737   1.403   1_554  A
C281        C282   1.398       .  A
C281        C736   1.403   1_556  A
C281        H288   1.084       .  S
C282        C733   1.414   1_556  A
C282        S284   1.802       .  S
S283        H286   1.408       .  S
S284        H285   1.406       .  S
C289        C294   1.413       .  A
C289        C746   1.403   1_554  A
C290        C291   1.401       .  A
C290        C745   1.404   1_556  A
C290        H299   1.084       .  S
C291        C748   1.415   1_556  A
C291        S295   1.803       .  S
C292        C293   1.403   1_556  A
C292        C747   1.414       .  A
C293        C294   1.397       .  A
C293        H300   1.084       .  S
C294        S296   1.804       .  S
S295        H298   1.408       .  S
S296        H297   1.407       .  S
C301        C306   1.410   1_665  A
C301       C1670   1.401       .  A
C302        C303   1.396       .  A
C302       C1669   1.400       .  A
C302        H311   1.084       .  S
C303       C1672   1.418       .  A
C303        S307   1.800       .  S
C304        C305   1.408   1_665  A
C304       C1671   1.418       .  A
C305        C306   1.397       .  A
C305        H312   1.084       .  S
C306        S308   1.804       .  S
S307        H310   1.408       .  S
S308        H309   1.407       .  S
C313        C314   1.403       .  A
C313        C318   1.409       .  A
C314        C315   1.404       .  A
C314        H323   1.081       .  S
C315        C316   1.418       .  A
C315        S319   1.809       .  S
C316        C317   1.406       .  A
C317        C318   1.394       .  A
C317        H324   1.083       .  S
C318        S320   1.802       .  S
S319        H322   1.407       .  S
S320        H321   1.405       .  S
C325        C326   1.403       .  A
C325        C330   1.413       .  A
C326        C327   1.397       .  A
C326        H335   1.085       .  S
C327        C328   1.415       .  A
C327        S331   1.800       .  S
C328        C329   1.407       .  A
C329        C330   1.399       .  A
C329        H336   1.085       .  S
C330        S332   1.803       .  S
S331        H334   1.408       .  S
S332        H333   1.408       .  S
C337        C497   1.467       .  S
C337        C338   1.399       .  A
C337        C798   1.408       .  A
C338        C339   1.398       .  A
C338        H347   1.084       .  S
C339        C340   1.421       .  A
C339        S343   1.802       .  S
C340        C797   1.409       .  A
C341        C342   1.399       .  A
C341        C796   1.409       .  A
C341        H348   1.084       .  S
C342        C793   1.410       .  A
C342        S344   1.804       .  S
S343        H346   1.408       .  S
S344        H345   1.407       .  S
C349        C354   1.419       .  A
C349        C806   1.408       .  A
C350        C351   1.399       .  A
C350        C805   1.409       .  A
C350        H359   1.083       .  S
C351        C808   1.411       .  A
C351        S355   1.805       .  S
C352        C498   1.474       .  S
C352        C353   1.401       .  A
C352        C807   1.411       .  A
C353        C354   1.398       .  A
C353        H360   1.084       .  S
C354        S356   1.800       .  S
S355        H358   1.405       .  S
S356        H357   1.408       .  S
C361        C366   1.412       .  A
C361       C1274   1.400       .  A
C362        C363   1.403       .  A
C362       C1273   1.401       .  A
C362        H371   1.082       .  S
C363        C364   1.419       .  A
C363        S367   1.810       .  S
C364       C1277   1.408   1_455  A
C365        C366   1.401       .  A
C365       C1276   1.408       .  A
C365        H372   1.084       .  S
C366        S368   1.804       .  S
S367        H370   1.407       .  S
S368        H369   1.406       .  S
C373        C374   1.401       .  A
C373        C378   1.413       .  A
C374        C375   1.394       .  A
C374        H383   1.084       .  S
C375        C376   1.415       .  A
C375        S379   1.804       .  S
C376        C377   1.404       .  A
C377        C378   1.395       .  A
C377        H384   1.083       .  S
C378        S380   1.804       .  S
S379        H382   1.406       .  S
S380        H381   1.407       .  S
C385        C386   1.406       .  A
C385        C390   1.417       .  A
C386        C387   1.396       .  A
C386        H395   1.084       .  S
C387        C388   1.417       .  A
C387        S391   1.803       .  S
C388        C389   1.404       .  A
C389        C390   1.393       .  A
C389        H396   1.084       .  S
C390        S392   1.802       .  S
S391        H394   1.408       .  S
S392        H393   1.408       .  S
C397        C402   1.412   1_455  A
C397       C1310   1.402       .  A
C398        C399   1.400       .  A
C398       C1309   1.406       .  A
C398        H407   1.084       .  S
C399       C1312   1.413       .  A
C399        S403   1.800       .  S
C400        C401   1.407   1_455  A
C400       C1311   1.419       .  A
C401        C402   1.398       .  A
C401        H408   1.083       .  S
C402        S404   1.803       .  S
S403        H406   1.407       .  S
S404        H405   1.406       .  S
C409        C414   1.417   1_655  A
C409       C1778   1.405       .  A
C410        C411   1.398       .  A
C410       C1777   1.403       .  A
C410        H419   1.085       .  S
C411       C1324   1.417       .  A
C411        S415   1.803       .  S
C412       C1323   1.416       .  A
C412        C869   1.405   1_655  A
C413        C414   1.399       .  A
C413        C868   1.404   1_445  A
C413        H420   1.084       .  S
C414        S416   1.801       .  S
S415        H418   1.408       .  S
S416        H417   1.408       .  S
C421        C422   1.404       .  A
C421        C426   1.413       .  A
C422        C423   1.400       .  A
C422        H431   1.084       .  S
C423        C424   1.414       .  A
C423        S427   1.803       .  S
C424        C425   1.403       .  A
C425        C426   1.395       .  A
C425        H432   1.084       .  S
C426        S428   1.802       .  S
S427        H430   1.408       .  S
S428        H429   1.405       .  S
C433        C434   1.403       .  A
C433        C438   1.412       .  A
C434        C435   1.399       .  A
C434        H443   1.081       .  S
C435        C436   1.411       .  A
C435        S439   1.809       .  S
C436        C437   1.403       .  A
C437        C438   1.397       .  A
C437        H444   1.084       .  S
C438        S440   1.804       .  S
S439        H442   1.407       .  S
S440        H441   1.407       .  S
C445       C1358   1.409   1_665  A
C445        C906   1.421       .  A
C446        C447   1.397       .  A
C446       C1357   1.407   1_545  A
C446        H455   1.084       .  S
C447       C1360   1.411   1_545  A
C447        S451   1.804       .  S
C448       C1359   1.408   1_565  A
C448        C905   1.399   1_455  A
C449        C450   1.399       .  A
C449        C904   1.399   1_655  A
C449        H456   1.085       .  S
C450        C901   1.420       .  A
C450        S452   1.802       .  S
S451        H454   1.407       .  S
S452        H453   1.408       .  S
O457        C467   1.262       .  A
O457       V1377   1.889       .  S
O458        C468   1.263       .  A
O459        C469   1.266   1_455  A
O459        V465   1.900       .  S
O460        V465   1.897       .  S
O461       C1382   1.262       .  A
O461        V466   1.892       .  S
O462        C925   1.263       .  A
O462        V466   1.894       .  S
O463        C468   1.263       .  A
O463       V1378   1.892   1_455  S
O464        C467   1.264       .  A
V465       O1369   1.892   1_455  S
V465        V922   2.086   1_465  T
V466       O1375   1.894       .  S
V466        V921   2.086       .  T
C467        C880   1.471       .  S
C468        C892   1.474       .  S
C469        O918   1.263   1_565  A
C469        C868   1.480       .  S
C470       O1373   1.262   1_455  A
C470        C904   1.465       .  S
O471        C481   1.263       .  A
O471        V479   1.895       .  S
O472        C482   1.262       .  A
O472       V1391   1.888       .  S
O473        C483   1.265       .  A
O473        V479   1.902       .  S
O474        C484   1.264       .  A
O474        V479   1.898       .  S
O475       C1396   1.264       .  A
O475        V480   1.893       .  S
O476       C1395   1.264       .  A
O476        V480   1.899       .  S
O477        C482   1.263       .  A
O477        V480   1.892       .  S
O478        C481   1.263       .  A
O478       V1392   1.894   1_455  S
V479       O1384   1.893   1_455  S
V479       V1392   2.086   1_455  T
V480       O1390   1.893       .  S
V480       V1391   2.085       .  T
C481        C844   1.471       .  S
C482        C829   1.467       .  S
C483       O1388   1.265   1_455  A
C483        C853   1.485       .  S
C484       O1387   1.265   1_455  A
C484        C820   1.485       .  S
O485        C495   1.264       .  A
O485        V493   1.892       .  S
O486        C496   1.264       .  A
O487        C497   1.262       .  A
O487        V493   1.895       .  S
O488        C498   1.263       .  A
O488        V493   1.896       .  S
O489        V494   1.897       .  S
O490        V494   1.898       .  S
O491        C496   1.263       .  A
O491        V494   1.891       .  S
O492        C495   1.262       .  A
C495        C832   1.469       .  S
C496        C841   1.470       .  S
O499        C509   1.263       .  A
O499        V507   1.897       .  S
O500        C510   1.263       .  A
O500        V507   1.893       .  S
O501        C511   1.264       .  A
O501        V507   1.899       .  S
O502        C512   1.266       .  A
O502        V507   1.899       .  S
O503        C512   1.263       .  A
O503        V508   1.896       .  S
O504        C511   1.264       .  A
O504        V508   1.895       .  S
O505        C510   1.263       .  A
O505        V508   1.894       .  S
O506        C509   1.263       .  A
O506        V508   1.892       .  S
V507        V508   2.087       .  T
C509        C889   1.474       .  S
C510        C877   1.469       .  S
C511        C769   1.476       .  S
C512        C784   1.485       .  S
O513       V1433   1.897       .  S
O514        V521   1.897       .  S
O515        C525   1.264   1_455  A
O515        V521   1.898   1_556  S
O516        C526   1.265   1_455  A
O516        V521   1.898       .  S
O517        C982   1.261       .  A
O517        V522   1.891       .  S
O518        C981   1.262   1_565  A
O518        V522   1.892   1_556  S
O519        C524   1.264       .  A
O519       V1434   1.895   1_455  S
O520        C523   1.263       .  A
O520        V522   1.896       .  S
V521       O1425   1.897   1_455  S
V521        V978   2.086   1_455  T
V522       O1431   1.896       .  S
V522        V977   2.086   1_565  T
C523        C733   1.476       .  S
C524        C745   1.475   1_565  S
C525        O974   1.264       .  A
C525        C757   1.472       .  S
C526        O973   1.263       .  A
C526        C901   1.486       .  S
O527        C537   1.264   1_455  A
O527        V535   1.891       .  S
O528        C538   1.262   1_455  A
O528        V535   1.894   1_554  S
O529        C539   1.263       .  A
O529        V535   1.891       .  S
O530        C540   1.262       .  A
O530       V1447   1.892       .  S
O531        C540   1.264       .  A
O531        V536   1.896       .  S
O532        C539   1.264       .  A
O532       V1448   1.896   1_455  S
O533       C1450   1.266       .  A
O533        V536   1.899   1_554  S
O534       C1449   1.262       .  A
O534        V536   1.896       .  S
V535       O1442   1.893   1_455  S
V535       V1448   2.085   1_455  T
V536       O1444   1.898       .  S
V536       V1447   2.084       .  T
C537       O1446   1.265       .  A
C537        C721   1.490       .  S
C538       O1445   1.267       .  A
C538        C856   1.485       .  S
C539        C709   1.475       .  S
C540        C697   1.472       .  S
O541        C551   1.263       .  A
O541        V549   1.896       .  S
O542        C552   1.264   1_565  A
O542        V549   1.894       .  S
O543        C553   1.264       .  A
O543        V549   1.897   1_556  S
O544        C554   1.262   1_565  A
O544        V549   1.894       .  S
O545        V550   1.896       .  S
O546        V550   1.896   1_556  S
O547        V550   1.896   1_556  S
O548        V550   1.894       .  S
C551        C736   1.475       .  S
C552        C748   1.478       .  S
C553        C685   1.477       .  S
C554        C805   1.488       .  S
O555        C565   1.264       .  A
O555        V563   1.897       .  S
O556        C566   1.265       .  A
O556        V563   1.895       .  S
O557        C567   1.264       .  A
O557        V563   1.895   1_554  S
O558        C568   1.263       .  A
O558        V563   1.893       .  S
O559        C568   1.264       .  A
O559        V564   1.898       .  S
O560        C567   1.264       .  A
O560        V564   1.899   1_554  S
O561        C566   1.262       .  A
O561        V564   1.893       .  S
O562        C565   1.263       .  A
O562        V564   1.891       .  S
V563        V564   2.087       .  T
C565        C700   1.474       .  S
C566        C712   1.476       .  S
C567        C781   1.477       .  S
C568        C673   1.473       .  S
O569        C579   1.265   1_455  A
O570        C580   1.264   1_455  A
O570        V577   1.898       .  S
O571        C581   1.265   1_455  A
O571        V577   1.897       .  S
O572        C582   1.263   1_455  A
O572        V577   1.898       .  S
O573       C1038   1.265   1_565  A
O573        V578   1.897       .  S
O574       C1037   1.263       .  A
O574        V578   1.898       .  S
O575       C1492   1.262       .  A
O576       C1491   1.262       .  A
O576        V578   1.891       .  S
V577       V1034   2.085   1_455  T
V578       V1033   2.084   1_565  T
C579       O1488   1.261       .  A
C579        C649   1.471       .  S
C580       O1487   1.262       .  A
C580        C661   1.472       .  S
C581       O1030   1.263       .  A
C581        C760   1.490       .  S
C582       O1029   1.265       .  A
C582        C865   1.480   1_655  S
O583       C1505   1.264       .  A
O583        V591   1.894       .  S
O584       C1506   1.263       .  A
O584        V591   1.890       .  S
O585        C595   1.264       .  A
O585        V591   1.901       .  S
O586        C596   1.265       .  A
O586        V591   1.899       .  S
O587       C1508   1.262   1_455  A
O587        V592   1.891       .  S
O588       C1507   1.262   1_455  A
O588        V592   1.890       .  S
O589        C594   1.264   1_455  A
O589        V592   1.894       .  S
O590        C593   1.263   1_455  A
O590        V592   1.889       .  S
V591       V1504   2.088       .  T
V592       V1503   2.087   1_455  T
C593       O1495   1.263       .  A
C593        C652   1.472       .  S
C594       O1496   1.262       .  A
C594        C664   1.474       .  S
C595       O1500   1.262       .  A
C595        C724   1.471       .  S
C596       O1499   1.263       .  A
C596        C817   1.474       .  S
O597        V605   1.900       .  S
O598        V605   1.899       .  S
O599        C609   1.262       .  A
O599        V605   1.895       .  S
O600        C610   1.263       .  A
O601        C610   1.262       .  A
O601        V606   1.891       .  S
O602        C609   1.264       .  A
O603        C608   1.263   1_565  A
O603        V606   1.898       .  S
O604        C607   1.265   1_565  A
O604        V606   1.896       .  S
C607        C688   1.486       .  S
C608        C796   1.490       .  S
C609        C637   1.478       .  S
C610        C625   1.469       .  S
O611        C621   1.261       .  A
O611        V619   1.890       .  S
O612        C622   1.264       .  A
O612        V619   1.890       .  S
O613        C623   1.263       .  A
O613        V619   1.894       .  S
O614        C624   1.263       .  A
O614        V619   1.896       .  S
O615        C624   1.262       .  A
O615        V620   1.892       .  S
O616        C623   1.263       .  A
O616        V620   1.893       .  S
O617        C622   1.264       .  A
O617        V620   1.902       .  S
O618        C621   1.267       .  A
O618        V620   1.900       .  S
V619        V620   2.086       .  T
C621        C676   1.482       .  S
C622        C772   1.483       .  S
C623        C640   1.476       .  S
C624        C628   1.468       .  S
C625        C626   1.402       .  A
C625        C630   1.413       .  A
C626        C627   1.396       .  A
C626        H635   1.084       .  S
C627        C628   1.412       .  A
C627        S631   1.804       .  S
C628        C629   1.402       .  A
C629        C630   1.396       .  A
C629        H636   1.084       .  S
C630        S632   1.804       .  S
S631        H634   1.407       .  S
S632        H633   1.407       .  S
C637        C638   1.404       .  A
C637        C642   1.415       .  A
C638        C639   1.395       .  A
C638        H647   1.084       .  S
C639        C640   1.412       .  A
C639        S643   1.800       .  S
C640        C641   1.404       .  A
C641        C642   1.398       .  A
C641        H648   1.084       .  S
C642        S644   1.800       .  S
S643        H646   1.407       .  S
S644        H645   1.408       .  S
C649        C650   1.402   1_655  A
C649       C1566   1.415       .  A
C650        C651   1.393       .  A
C650        H659   1.085       .  S
C651        C652   1.413   1_455  A
C651        S655   1.804       .  S
C652       C1565   1.403       .  A
C653       C1564   1.404       .  A
C653        C654   1.397       .  A
C653        H660   1.084       .  S
C654       C1561   1.415       .  A
C654        S656   1.803       .  S
S655        H658   1.408       .  S
S656        H657   1.407       .  S
C661       C1574   1.403       .  A
C661        C666   1.412   1_655  A
C662       C1573   1.402       .  A
C662        C663   1.392       .  A
C662        H671   1.084       .  S
C663       C1576   1.413       .  A
C663        S667   1.804       .  S
C664       C1575   1.414       .  A
C664        C665   1.405   1_655  A
C665        C666   1.397       .  A
C665        H672   1.084       .  S
C666        S668   1.804       .  S
S667        H670   1.408       .  S
S668        H669   1.408       .  S
C673        C674   1.401       .  A
C673        C678   1.412       .  A
C674        C675   1.398       .  A
C674        H683   1.085       .  S
C675        C676   1.419       .  A
C675        S679   1.801       .  S
C676        C677   1.404       .  A
C677        C678   1.396       .  A
C677        H684   1.085       .  S
C678        S680   1.803       .  S
S679        H682   1.408       .  S
S680        H681   1.407       .  S
C685        C690   1.412       .  A
C686        C687   1.399       .  A
C686        H695   1.084       .  S
C687        S691   1.803       .  S
C688        C689   1.407   1_545  A
C689        C690   1.397       .  A
C689        H696   1.084       .  S
C690        S692   1.803       .  S
S691        H694   1.408       .  S
S692        H693   1.407       .  S
C697        C698   1.403   1_556  A
C697        C702   1.412       .  A
C698        C699   1.397       .  A
C698        H707   1.084       .  S
C699        C700   1.414   1_554  A
C699        S703   1.803       .  S
C700        C701   1.404       .  A
C701        C702   1.396       .  A
C701        H708   1.084       .  S
C702        S704   1.804       .  S
S703        H706   1.408       .  S
S704        H705   1.407       .  S
C709        C710   1.404   1_556  A
C709        C714   1.413       .  A
C710        C711   1.398       .  A
C710        H719   1.084       .  S
C711        C712   1.416   1_554  A
C711        S715   1.803       .  S
C712        C713   1.403       .  A
C713        C714   1.395       .  A
C713        H720   1.084       .  S
C714        S716   1.804       .  S
S715        H718   1.407       .  S
S716        H717   1.408       .  S
C721        C722   1.409   1_655  A
C721       C1638   1.420       .  A
C722        C723   1.395       .  A
C722        H731   1.083       .  S
C723       C1636   1.408   1_455  A
C723        S727   1.805       .  S
C724       C1635   1.410       .  A
C724        C725   1.401       .  A
C725        C726   1.400       .  A
C725        H732   1.084       .  S
C726       C1633   1.420       .  A
C726        S728   1.801       .  S
S727        H730   1.406   1_455  S
S728        H729   1.408       .  S
C733        C734   1.404   1_565  A
C734        C735   1.398       .  A
C734        H743   1.084       .  S
C735        C736   1.413   1_545  A
C735        S739   1.804       .  S
C737        C738   1.397       .  A
C737        H744   1.084       .  S
C738        S740   1.802       .  S
S739        H742   1.408       .  S
S740        H741   1.406       .  S
C745        C750   1.412   1_545  A
C746        C747   1.398       .  A
C746        H755   1.084       .  S
C747        S751   1.803       .  S
C748        C749   1.404   1_545  A
C749        C750   1.396       .  A
C749        H756   1.084       .  S
C750        S752   1.804       .  S
S751        H754   1.408       .  S
S752        H753   1.407       .  S
C757       C1214   1.399       .  A
C757        C762   1.408   1_655  A
C758       C1213   1.401   1_565  A
C758        C759   1.397       .  A
C758        H767   1.082       .  S
C759       C1216   1.418       .  A
C759        S763   1.800       .  S
C760       C1215   1.420       .  A
C760        C761   1.410   1_655  A
C761        C762   1.402       .  A
C761        H768   1.081       .  S
C762        S764   1.808       .  S
S763        H766   1.408       .  S
S764        H765   1.407       .  S
C769        C770   1.405       .  A
C769        C774   1.411       .  A
C770        C771   1.405       .  A
C770        H779   1.082       .  S
C771        C772   1.417       .  A
C771        S775   1.809       .  S
C772        C773   1.405       .  A
C773        C774   1.394       .  A
C773        H780   1.083       .  S
C774        S776   1.804       .  S
S775        H778   1.407       .  S
S776        H777   1.407       .  S
C781        C782   1.403       .  A
C781        C786   1.412       .  A
C782        C783   1.403       .  A
C782        H791   1.082       .  S
C783        C784   1.418       .  A
C783        S787   1.810       .  S
C784        C785   1.406       .  A
C785        C786   1.398       .  A
C785        H792   1.084       .  S
C786        S788   1.803       .  S
S787        H790   1.407       .  S
S788        H789   1.408       .  S
C793        C794   1.399   1_545  A
C794        C795   1.398       .  A
C794        H803   1.085       .  S
C795        C796   1.421   1_565  A
C795        S799   1.801       .  S
C797        C798   1.398       .  A
C797        H804   1.083       .  S
C798        S800   1.804       .  S
S799        H802   1.408       .  S
S800        H801   1.406       .  S
C805        C810   1.420   1_545  A
C806        C807   1.398       .  A
C806        H815   1.084       .  S
C807        S811   1.804       .  S
C808        C809   1.399   1_545  A
C809        C810   1.396       .  A
C809        H816   1.084       .  S
C810        S812   1.801       .  S
S811        H814   1.407       .  S
S812        H813   1.408       .  S
C817       C1730   1.403       .  A
C817        C822   1.410       .  A
C818       C1729   1.403       .  A
C818        C819   1.402       .  A
C818        H827   1.083       .  S
C819        C820   1.416       .  A
C819        S823   1.809       .  S
C820       C1733   1.407   1_455  A
C821       C1732   1.407       .  A
C821        C822   1.396       .  A
C821        H828   1.084       .  S
C822        S824   1.804       .  S
S823        H826   1.407       .  S
S824        H825   1.407       .  S
C829        C830   1.402       .  A
C829        C834   1.411       .  A
C830        C831   1.395       .  A
C830        H839   1.084       .  S
C831        C832   1.414       .  A
C831        S835   1.804       .  S
C832        C833   1.403       .  A
C833        C834   1.394       .  A
C833        H840   1.084       .  S
C834        S836   1.804       .  S
S835        H838   1.408       .  S
S836        H837   1.407       .  S
C841        C842   1.403       .  A
C841        C846   1.413       .  A
C842        C843   1.397       .  A
C842        H851   1.085       .  S
C843        C844   1.412       .  A
C843        S847   1.804       .  S
C844        C845   1.403       .  A
C845        C846   1.397       .  A
C845        H852   1.085       .  S
C846        S848   1.804       .  S
S847        H850   1.408       .  S
S848        H849   1.408       .  S
C853       C1766   1.404       .  A
C853        C858   1.417       .  A
C854       C1765   1.401       .  A
C854        C855   1.400       .  A
C854        H863   1.084       .  S
C855       C1768   1.421       .  A
C855        S859   1.801       .  S
C856       C1767   1.416       .  A
C856        C857   1.404   1_655  A
C857        C858   1.402       .  A
C857        H864   1.084       .  S
C858        S860   1.802       .  S
S859        H862   1.408       .  S
S860        H861   1.407   1_455  S
C865       C1322   1.404   1_455  A
C865        C870   1.414       .  A
C866       C1321   1.404       .  A
C866        C867   1.397   1_545  A
C866        H875   1.085       .  S
C867       C1780   1.415       .  A
C867        S871   1.803       .  S
C868       C1779   1.415       .  A
C869        C870   1.399       .  A
C869        H876   1.084       .  S
C870        S872   1.800       .  S
S871        H874   1.408       .  S
S872        H873   1.407       .  S
C877        C878   1.403       .  A
C877        C882   1.412       .  A
C878        C879   1.398       .  A
C878        H887   1.084       .  S
C879        C880   1.413       .  A
C879        S883   1.803       .  S
C880        C881   1.402       .  A
C881        C882   1.394       .  A
C881        H888   1.084       .  S
C882        S884   1.803       .  S
S883        H886   1.408       .  S
S884        H885   1.406       .  S
C889        C890   1.404       .  A
C889        C894   1.414       .  A
C890        C891   1.395       .  A
C890        H899   1.083       .  S
C891        C892   1.412       .  A
C891        S895   1.800       .  S
C892        C893   1.404       .  A
C893        C894   1.398       .  A
C893        H900   1.083       .  S
C894        S896   1.803       .  S
S895        H898   1.407       .  S
S896        H897   1.408       .  S
C901       C1814   1.408   1_655  A
C902       C1813   1.408       .  A
C902        C903   1.397       .  A
C902        H911   1.083       .  S
C903       C1816   1.410       .  A
C903        S907   1.804       .  S
C904       C1815   1.408       .  A
C905        C906   1.398       .  A
C905        H912   1.084       .  S
C906        S908   1.802       .  S
S907        H910   1.407       .  S
S908        H909   1.408       .  S
O913        C923   1.263       .  A
O914        C924   1.263       .  A
O914       V1377   1.892   1_545  S
O915        C925   1.266       .  A
O915        V921   1.902       .  S
O916       C1382   1.264       .  A
O916        V921   1.899       .  S
O917        V922   1.893       .  S
O918        V922   1.894       .  S
O919        C924   1.264       .  A
O920        C923   1.264       .  A
O920       V1378   1.899       .  S
V921       O1370   1.896       .  S
V922       O1376   1.896   1_545  S
C923       C1336   1.474       .  S
C924       C1348   1.472       .  S
C925       C1324   1.484       .  S
C926       O1372   1.264       .  A
C926       C1360   1.470       .  S
O927        C937   1.264       .  A
O927        V935   1.893       .  S
O928        C938   1.262       .  A
O929        C939   1.262       .  A
O929        V935   1.894       .  S
O930        C940   1.262       .  A
O930        V935   1.891       .  S
O931        V936   1.895       .  S
O932        V936   1.900       .  S
O933        C938   1.262       .  A
O933        V936   1.890       .  S
O934        C937   1.263       .  A
C937       C1300   1.485       .  S
C938       C1285   1.465       .  S
C939       C1309   1.487       .  S
C940       C1276   1.486       .  S
O941        C951   1.264       .  A
O941        V949   1.894       .  S
O942        C952   1.265       .  A
O942       V1405   1.895       .  S
O943        C953   1.262       .  A
O943        V949   1.893       .  S
O944        C954   1.263       .  A
O944        V949   1.895       .  S
O945       C1410   1.264       .  A
O945        V950   1.894       .  S
O946       C1409   1.264       .  A
O946        V950   1.899       .  S
O947        C952   1.262       .  A
O947        V950   1.893       .  S
O948        C951   1.261       .  A
O948       V1406   1.886   1_545  S
V949       O1398   1.894   1_545  S
V949       V1406   2.087   1_545  T
V950       O1404   1.890       .  S
V950       V1405   2.087       .  T
C951       C1288   1.465       .  S
C952       C1297   1.485       .  S
C953       O1402   1.264   1_545  A
C953       C1705   1.467       .  S
C954       O1401   1.264   1_545  A
C954       C1720   1.474       .  S
O955        C965   1.264       .  A
O955        V963   1.898       .  S
O956        C966   1.264       .  A
O956        V963   1.895       .  S
O957        C967   1.264       .  A
O957        V963   1.898       .  S
O958        C968   1.265       .  A
O958        V963   1.898       .  S
O959        C968   1.263       .  A
O959        V964   1.894       .  S
O960        C967   1.264       .  A
O960        V964   1.894       .  S
O961        C966   1.263       .  A
O961        V964   1.894       .  S
O962        C965   1.263       .  A
O962        V964   1.892       .  S
V963        V964   2.087       .  T
C965       C1345   1.474       .  S
C966       C1333   1.472       .  S
C967       C1225   1.474       .  S
C968       C1240   1.485       .  S
O969       C1435   1.264   1_545  A
O970       C1436   1.264       .  A
O970        V977   1.899       .  S
O971        C981   1.265       .  A
O971        V977   1.900   1_556  S
O972        C982   1.266   1_545  A
O972        V977   1.900       .  S
O973        V978   1.895       .  S
O974        V978   1.899   1_556  S
O975        C980   1.263       .  A
O976        C979   1.263       .  A
O976        V978   1.897       .  S
C979       O1425   1.264       .  A
C979       C1189   1.477       .  S
C980       O1426   1.264       .  A
C980       C1201   1.473       .  S
C981       C1213   1.473       .  S
C982       C1357   1.485       .  S
O983        C993   1.265       .  A
O983        V991   1.892       .  S
O984        C994   1.262       .  A
O984        V991   1.895   1_554  S
O985        C995   1.263       .  A
O985        V991   1.891       .  S
O986        C996   1.263       .  A
O987        C996   1.263       .  A
O987        V992   1.894       .  S
O988        C995   1.264   1_554  A
O989        V992   1.899   1_554  S
O990        V992   1.897       .  S
C993       C1177   1.489       .  S
C994       C1312   1.480       .  S
C995       C1165   1.478       .  S
C996       C1153   1.471       .  S
O997       C1007   1.263       .  A
O997       V1005   1.894       .  S
O998       C1008   1.263       .  A
O998       V1005   1.891       .  S
O999       C1009   1.264       .  A
O999       V1005   1.899   1_556  S
O1000      C1010   1.264       .  A
O1000      V1005   1.896       .  S
O1001      C1466   1.265   1_545  A
O1001      V1006   1.897       .  S
O1002      C1465   1.265   1_545  A
O1002      V1006   1.898   1_556  S
O1003      C1464   1.264       .  A
O1003      V1006   1.901       .  S
O1004      C1463   1.264   1_545  A
O1004      V1006   1.896       .  S
V1005      V1462   2.086       .  T
V1006      V1461   2.086   1_545  T
C1007      O1460   1.264       .  A
C1007      C1192   1.476       .  S
C1008      O1459   1.265       .  A
C1008      C1204   1.476       .  S
C1009      O1458   1.264       .  A
C1009      C1141   1.477       .  S
C1010      O1457   1.264       .  A
C1010      C1261   1.480       .  S
O1011      C1021   1.263       .  A
O1011      V1019   1.896       .  S
O1012      C1022   1.265       .  A
O1012      V1019   1.894       .  S
O1013      C1023   1.263       .  A
O1013      V1019   1.894   1_554  S
O1014      C1024   1.263       .  A
O1014      V1019   1.895       .  S
O1015      C1024   1.264       .  A
O1015      V1020   1.899       .  S
O1016      C1023   1.264       .  A
O1016      V1020   1.899   1_554  S
O1017      C1022   1.263       .  A
O1017      V1020   1.897       .  S
O1018      C1021   1.264       .  A
O1018      V1020   1.894       .  S
V1019      V1020   2.087       .  T
C1021      C1156   1.473       .  S
C1022      C1168   1.479       .  S
C1023      C1237   1.474       .  S
C1024      C1129   1.475       .  S
O1025      C1035   1.264       .  A
O1025      V1489   1.895       .  S
O1026      C1036   1.263       .  A
O1026      V1033   1.895       .  S
O1027      C1037   1.265   1_545  A
O1027      V1033   1.895       .  S
O1028      C1038   1.262       .  A
O1028      V1033   1.895       .  S
O1029      V1034   1.896       .  S
O1030      V1034   1.897       .  S
O1031      V1490   1.886   1_545  S
O1032      V1034   1.889       .  S
V1033      O1481   1.895   1_545  S
V1034      O1487   1.889       .  S
C1035      C1105   1.469       .  S
C1036      C1117   1.474       .  S
C1037      C1216   1.486       .  S
C1038      C1321   1.481       .  S
O1039      V1047   1.897       .  S
O1040      V1047   1.894       .  S
O1041      C1051   1.263       .  A
O1041      V1047   1.900       .  S
O1042      C1052   1.264   1_655  A
O1042      V1047   1.897       .  S
O1043      V1048   1.890       .  S
O1044      V1048   1.892       .  S
O1045      C1050   1.263       .  A
O1045      V1048   1.888       .  S
O1046      C1049   1.261       .  A
O1046      V1048   1.887       .  S
C1049      C1108   1.470       .  S
C1050      C1120   1.475       .  S
C1051      C1180   1.467       .  S
C1052      C1273   1.472       .  S
O1053      C1519   1.265   1_545  A
O1053      V1061   1.902       .  S
O1054      C1520   1.266       .  A
O1054      V1061   1.899       .  S
O1055      C1065   1.263       .  A
O1055      V1061   1.896       .  S
O1056      C1066   1.263       .  A
O1056      V1517   1.894       .  S
O1057      C1066   1.263       .  A
O1057      V1062   1.893       .  S
O1058      C1065   1.264       .  A
O1058      V1518   1.894   1_545  S
O1059      C1064   1.263       .  A
O1059      V1062   1.897       .  S
O1060      C1063   1.266       .  A
O1060      V1062   1.900       .  S
V1061      O1512   1.894   1_545  S
V1061      V1518   2.085   1_545  T
V1062      O1514   1.893       .  S
V1062      V1517   2.085       .  T
C1063      O1509   1.264       .  A
C1063      C1144   1.488       .  S
C1064      O1510   1.265       .  A
C1064      C1252   1.489       .  S
C1065      C1093   1.476       .  S
C1066      C1081   1.471       .  S
O1067      C1077   1.261       .  A
O1067      V1075   1.891       .  S
O1068      C1078   1.264       .  A
O1068      V1075   1.889       .  S
O1069      C1079   1.263       .  A
O1069      V1075   1.893       .  S
O1070      C1080   1.263       .  A
O1070      V1075   1.894       .  S
O1071      C1080   1.263       .  A
O1071      V1076   1.895       .  S
O1072      C1079   1.264       .  A
O1072      V1076   1.896       .  S
O1073      C1078   1.264       .  A
O1073      V1076   1.902       .  S
O1074      C1077   1.267       .  A
O1074      V1076   1.902       .  S
V1075      V1076   2.086       .  T
C1077      C1132   1.484       .  S
C1078      C1228   1.483       .  S
C1079      C1096   1.476       .  S
C1080      C1084   1.470       .  S
C1081      C1082   1.404       .  A
C1081      C1086   1.413       .  A
C1082      C1083   1.397       .  A
C1082      H1091   1.085       .  S
C1083      C1084   1.412       .  A
C1083      S1087   1.804       .  S
C1084      C1085   1.402       .  A
C1085      C1086   1.396       .  A
C1085      H1092   1.084       .  S
C1086      S1088   1.803       .  S
S1087      H1090   1.407       .  S
S1088      H1089   1.407       .  S
C1093      C1094   1.403       .  A
C1093      C1098   1.414       .  A
C1094      C1095   1.396       .  A
C1094      H1103   1.084       .  S
C1095      C1096   1.414       .  A
C1095      S1099   1.804       .  S
C1096      C1097   1.404       .  A
C1097      C1098   1.398       .  A
C1097      H1104   1.084       .  S
C1098      S1100   1.802       .  S
S1099      H1102   1.408       .  S
S1100      H1101   1.407       .  S
C1105      C1106   1.400       .  A
C1106      C1107   1.394       .  A
C1106      H1115   1.084       .  S
C1107      C1108   1.415       .  A
C1107      S1111   1.804       .  S
C1109      C1110   1.397       .  A
C1109      H1116   1.084       .  S
C1110      S1112   1.804       .  S
S1111      H1114   1.407       .  S
S1112      H1113   1.408       .  S
C1117      C1122   1.413       .  A
C1118      C1119   1.394       .  A
C1118      H1127   1.084       .  S
C1119      S1123   1.804       .  S
C1120      C1121   1.405       .  A
C1121      C1122   1.396       .  A
C1121      H1128   1.084       .  S
C1122      S1124   1.804       .  S
S1123      H1126   1.408       .  S
S1124      H1125   1.408       .  S
C1129      C1130   1.401       .  A
C1129      C1134   1.413       .  A
C1130      C1131   1.399       .  A
C1130      H1139   1.085       .  S
C1131      C1132   1.419       .  A
C1131      S1135   1.801       .  S
C1132      C1133   1.405       .  A
C1133      C1134   1.397       .  A
C1133      H1140   1.085       .  S
C1134      S1136   1.803       .  S
S1135      H1138   1.408       .  S
S1136      H1137   1.407       .  S
C1141      C1598   1.402       .  A
C1141      C1146   1.412       .  A
C1142      C1597   1.404   1_545  A
C1142      C1143   1.404       .  A
C1142      H1151   1.082       .  S
C1143      C1600   1.417   1_545  A
C1143      S1147   1.809       .  S
C1144      C1599   1.419       .  A
C1144      C1145   1.407       .  A
C1145      C1146   1.399       .  A
C1145      H1152   1.084       .  S
C1146      S1148   1.804       .  S
S1147      H1150   1.406       .  S
S1148      H1149   1.407       .  S
C1153      C1154   1.402   1_556  A
C1153      C1158   1.412       .  A
C1154      C1155   1.398       .  A
C1154      H1163   1.084       .  S
C1155      C1156   1.415   1_554  A
C1155      S1159   1.803       .  S
C1156      C1157   1.403       .  A
C1157      C1158   1.396       .  A
C1157      H1164   1.084       .  S
C1158      S1160   1.804       .  S
S1159      H1162   1.407       .  S
S1160      H1161   1.407       .  S
C1165      C1166   1.404   1_556  A
C1165      C1170   1.414       .  A
C1166      C1167   1.400       .  A
C1166      H1175   1.084       .  S
C1167      C1168   1.417   1_554  A
C1167      S1171   1.803       .  S
C1168      C1169   1.403       .  A
C1169      C1170   1.394       .  A
C1169      H1176   1.085       .  S
C1170      S1172   1.804       .  S
S1171      H1174   1.407       .  S
S1172      H1173   1.408       .  S
C1177      C1178   1.407       .  A
C1178      C1179   1.395       .  A
C1178      H1187   1.084       .  S
C1179      S1183   1.804       .  S
C1180      C1181   1.400       .  A
C1181      C1182   1.401       .  A
C1181      H1188   1.085       .  S
C1182      S1184   1.801       .  S
S1183      H1186   1.407       .  S
S1184      H1185   1.408       .  S
C1189      C1190   1.405       .  A
C1189      C1650   1.414   1_554  A
C1190      C1191   1.398       .  A
C1190      H1199   1.084       .  S
C1191      C1192   1.413       .  A
C1191      S1195   1.804       .  S
C1192      C1649   1.403   1_554  A
C1193      C1648   1.404   1_556  A
C1193      C1194   1.399       .  A
C1193      H1200   1.084       .  S
C1194      C1645   1.415   1_556  A
C1194      S1196   1.802       .  S
S1195      H1198   1.408       .  S
S1196      H1197   1.407       .  S
C1201      C1658   1.404   1_554  A
C1201      C1206   1.412       .  A
C1202      C1657   1.405   1_556  A
C1202      C1203   1.402       .  A
C1202      H1211   1.084       .  S
C1203      C1660   1.415   1_556  A
C1203      S1207   1.803       .  S
C1204      C1659   1.415   1_554  A
C1204      C1205   1.403       .  A
C1205      C1206   1.395       .  A
C1205      H1212   1.084       .  S
C1206      S1208   1.804       .  S
S1207      H1210   1.407       .  S
S1208      H1209   1.407       .  S
C1213      C1218   1.409       .  A
C1214      C1215   1.399       .  A
C1214      H1223   1.082       .  S
C1215      S1219   1.801       .  S
C1216      C1217   1.409   1_565  A
C1217      C1218   1.403       .  A
C1217      H1224   1.081       .  S
C1218      S1220   1.809       .  S
S1219      H1222   1.408       .  S
S1220      H1221   1.407       .  S
C1225      C1226   1.404       .  A
C1225      C1230   1.409       .  A
C1226      C1227   1.405       .  A
C1226      H1235   1.081       .  S
C1227      C1228   1.417       .  A
C1227      S1231   1.809       .  S
C1228      C1229   1.406       .  A
C1229      C1230   1.393       .  A
C1229      H1236   1.083       .  S
C1230      S1232   1.803       .  S
S1231      H1234   1.407       .  S
S1232      H1233   1.406       .  S
C1237      C1238   1.401       .  A
C1237      C1242   1.411       .  A
C1238      C1239   1.401       .  A
C1238      H1247   1.083       .  S
C1239      C1240   1.419       .  A
C1239      S1243   1.810       .  S
C1240      C1241   1.407       .  A
C1241      C1242   1.398       .  A
C1241      H1248   1.084       .  S
C1242      S1244   1.804       .  S
S1243      H1246   1.407       .  S
S1244      H1245   1.407       .  S
C1249      C1409   1.469       .  S
C1249      C1250   1.399       .  A
C1249      C1710   1.409       .  A
C1250      C1251   1.398       .  A
C1250      H1259   1.084       .  S
C1251      C1252   1.420       .  A
C1251      S1255   1.801       .  S
C1252      C1709   1.410       .  A
C1253      C1708   1.409       .  A
C1253      C1254   1.398       .  A
C1253      H1260   1.083       .  S
C1254      C1705   1.408       .  A
C1254      S1256   1.804       .  S
S1255      H1258   1.408       .  S
S1256      H1257   1.407       .  S
C1261      C1718   1.405       .  A
C1261      C1266   1.415       .  A
C1262      C1717   1.406   1_545  A
C1262      C1263   1.399       .  A
C1262      H1271   1.084       .  S
C1263      C1720   1.413       .  A
C1263      S1267   1.804       .  S
C1264      C1410   1.478       .  S
C1264      C1719   1.414       .  A
C1264      C1265   1.403       .  A
C1265      C1266   1.400       .  A
C1265      H1272   1.082       .  S
C1266      S1268   1.809       .  S
S1267      H1270   1.407       .  S
S1268      H1269   1.407       .  S
C1273      C1278   1.410   1_455  A
C1274      C1275   1.395       .  A
C1274      H1283   1.085       .  S
C1275      C1276   1.418       .  A
C1275      S1279   1.800       .  S
C1277      C1278   1.396       .  A
C1277      H1284   1.083       .  S
C1278      S1280   1.804       .  S
S1279      H1282   1.408       .  S
S1280      H1281   1.407       .  S
C1285      C1286   1.401       .  A
C1285      C1290   1.412       .  A
C1286      C1287   1.394       .  A
C1286      H1295   1.083       .  S
C1287      C1288   1.413       .  A
C1287      S1291   1.804       .  S
C1288      C1289   1.402       .  A
C1289      C1290   1.395       .  A
C1289      H1296   1.084       .  S
C1290      S1292   1.804       .  S
S1291      H1294   1.407       .  S
S1292      H1293   1.407       .  S
C1297      C1298   1.406       .  A
C1297      C1302   1.417       .  A
C1298      C1299   1.397       .  A
C1298      H1307   1.084       .  S
C1299      C1300   1.417       .  A
C1299      S1303   1.802       .  S
C1300      C1301   1.406       .  A
C1301      C1302   1.396       .  A
C1301      H1308   1.084       .  S
C1302      S1304   1.803       .  S
S1303      H1306   1.408       .  S
S1304      H1305   1.408       .  S
C1309      C1314   1.420       .  A
C1310      C1311   1.400       .  A
C1310      H1319   1.084       .  S
C1311      S1315   1.800       .  S
C1312      C1313   1.401       .  A
C1313      C1314   1.400       .  A
C1313      H1320   1.084       .  S
C1314      S1316   1.803       .  S
S1315      H1318   1.408       .  S
S1316      H1317   1.408       .  S
C1321      C1326   1.416       .  A
C1322      C1323   1.398       .  A
C1322      H1331   1.085       .  S
C1323      S1327   1.803       .  S
C1324      C1781   1.406       .  A
C1325      C1780   1.404       .  A
C1325      C1326   1.398   1_565  A
C1325      H1332   1.085       .  S
C1326      S1328   1.800       .  S
S1327      H1330   1.408       .  S
S1328      H1329   1.408       .  S
C1333      C1334   1.403       .  A
C1333      C1338   1.412       .  A
C1334      C1335   1.399       .  A
C1334      H1343   1.084       .  S
C1335      C1336   1.414       .  A
C1335      S1339   1.803       .  S
C1336      C1337   1.403       .  A
C1337      C1338   1.395       .  A
C1337      H1344   1.084       .  S
C1338      S1340   1.802       .  S
S1339      H1342   1.407       .  S
S1340      H1341   1.405       .  S
C1345      C1346   1.404       .  A
C1345      C1350   1.413       .  A
C1346      C1347   1.396       .  A
C1346      H1355   1.084       .  S
C1347      C1348   1.412       .  A
C1347      S1351   1.804       .  S
C1348      C1349   1.404       .  A
C1349      C1350   1.397       .  A
C1349      H1356   1.085       .  S
C1350      S1352   1.803       .  S
S1351      H1354   1.408       .  S
S1352      H1353   1.408       .  S
C1357      C1818   1.420       .  A
C1358      C1359   1.397       .  A
C1358      H1367   1.083       .  S
C1359      S1363   1.804       .  S
C1360      C1817   1.400       .  A
C1361      C1816   1.398       .  A
C1361      C1362   1.398       .  A
C1361      H1368   1.084       .  S
C1362      C1813   1.421       .  A
C1362      S1364   1.802       .  S
S1363      H1366   1.406       .  S
S1364      H1365   1.408       .  S
O1369      C1379   1.263       .  A
O1370      C1380   1.263       .  A
O1371      C1381   1.265       .  A
O1371      V1377   1.899       .  S
O1372      V1377   1.898       .  S
O1373      V1378   1.894       .  S
O1374      V1378   1.894       .  S
O1375      C1380   1.264       .  A
O1376      C1379   1.264       .  A
C1379      C1792   1.473       .  S
C1380      C1804   1.474       .  S
C1381      C1780   1.478       .  S
C1382      C1816   1.468       .  S
O1383      C1393   1.264       .  A
O1383      V1391   1.890       .  S
O1384      C1394   1.263       .  A
O1385      C1395   1.264       .  A
O1385      V1391   1.900       .  S
O1386      C1396   1.264       .  A
O1386      V1391   1.899       .  S
O1387      V1392   1.900       .  S
O1388      V1392   1.900       .  S
O1389      C1394   1.263       .  A
O1389      V1392   1.893       .  S
O1390      C1393   1.262       .  A
C1393      C1756   1.483       .  S
C1394      C1741   1.468       .  S
C1395      C1765   1.474       .  S
C1396      C1732   1.485       .  S
O1397      C1407   1.264       .  A
O1397      V1405   1.897       .  S
O1398      C1408   1.265       .  A
O1399      C1409   1.263       .  A
O1399      V1405   1.894       .  S
O1400      C1410   1.263       .  A
O1400      V1405   1.897       .  S
O1401      V1406   1.897       .  S
O1402      V1406   1.899       .  S
O1403      C1408   1.261       .  A
O1403      V1406   1.888       .  S
O1404      C1407   1.262       .  A
C1407      C1744   1.469       .  S
C1408      C1753   1.483       .  S
O1411      C1421   1.264       .  A
O1411      V1419   1.900       .  S
O1412      C1422   1.264       .  A
O1412      V1419   1.896       .  S
O1413      C1423   1.264       .  A
O1413      V1419   1.900       .  S
O1414      C1424   1.265       .  A
O1414      V1419   1.899       .  S
O1415      C1424   1.263       .  A
O1415      V1420   1.896       .  S
O1416      C1423   1.264       .  A
O1416      V1420   1.894       .  S
O1417      C1422   1.263       .  A
O1417      V1420   1.894       .  S
O1418      C1421   1.263       .  A
O1418      V1420   1.891       .  S
V1419      V1420   2.087       .  T
C1421      C1801   1.475       .  S
C1422      C1789   1.472       .  S
C1423      C1681   1.474       .  S
C1424      C1696   1.484       .  S
O1426      V1433   1.898       .  S
O1427      C1437   1.264       .  A
O1427      V1433   1.898   1_556  S
O1428      C1438   1.266       .  A
O1428      V1433   1.899       .  S
O1429      V1434   1.893       .  S
O1430      V1434   1.897   1_556  S
O1431      C1436   1.264   1_565  A
O1432      C1435   1.263       .  A
O1432      V1434   1.897       .  S
C1435      C1645   1.477       .  S
C1436      C1657   1.476       .  S
C1437      C1669   1.470       .  S
C1438      C1813   1.487       .  S
O1439      C1449   1.266       .  A
O1439      V1447   1.895       .  S
O1440      C1450   1.263       .  A
O1440      V1447   1.898   1_554  S
O1441      C1451   1.262       .  A
O1441      V1447   1.892       .  S
O1442      C1452   1.263       .  A
O1443      C1452   1.263       .  A
O1443      V1448   1.895       .  S
O1444      C1451   1.265       .  A
O1445      V1448   1.908   1_554  S
O1446      V1448   1.906       .  S
C1449      C1633   1.485       .  S
C1450      C1768   1.490       .  S
C1451      C1621   1.480       .  S
C1452      C1609   1.473       .  S
O1453      C1463   1.263       .  A
O1453      V1461   1.896       .  S
O1454      C1464   1.264   1_565  A
O1454      V1461   1.894       .  S
O1455      C1465   1.264       .  A
O1455      V1461   1.899   1_556  S
O1456      C1466   1.263       .  A
O1456      V1461   1.895       .  S
O1457      V1462   1.898       .  S
O1458      V1462   1.897   1_556  S
O1459      V1462   1.901       .  S
O1460      V1462   1.898       .  S
C1463      C1648   1.476       .  S
C1464      C1660   1.478       .  S
C1465      C1597   1.480       .  S
C1466      C1717   1.482       .  S
O1467      C1477   1.263       .  A
O1467      V1475   1.895       .  S
O1468      C1478   1.265       .  A
O1468      V1475   1.895       .  S
O1469      C1479   1.263       .  A
O1469      V1475   1.894   1_554  S
O1470      C1480   1.263       .  A
O1470      V1475   1.894       .  S
O1471      C1480   1.265       .  A
O1471      V1476   1.900       .  S
O1472      C1479   1.265       .  A
O1472      V1476   1.900   1_554  S
O1473      C1478   1.263       .  A
O1473      V1476   1.895       .  S
O1474      C1477   1.263       .  A
O1474      V1476   1.893       .  S
V1475      V1476   2.087       .  T
C1477      C1612   1.475       .  S
C1478      C1624   1.480       .  S
C1479      C1693   1.476       .  S
C1480      C1585   1.477       .  S
O1481      C1491   1.265       .  A
O1482      C1492   1.264       .  A
O1482      V1489   1.897       .  S
O1483      C1493   1.265       .  A
O1483      V1489   1.896       .  S
O1484      C1494   1.263       .  A
O1484      V1489   1.898       .  S
O1485      V1490   1.899       .  S
O1486      V1490   1.901       .  S
O1488      V1490   1.889       .  S
C1491      C1561   1.476       .  S
C1492      C1573   1.469       .  S
C1493      C1672   1.485       .  S
C1494      C1777   1.481       .  S
O1495      V1503   1.894       .  S
O1496      V1503   1.891       .  S
O1497      C1507   1.265       .  A
O1497      V1503   1.907       .  S
O1498      C1508   1.266       .  A
O1498      V1503   1.906       .  S
O1499      V1504   1.893       .  S
O1500      V1504   1.889       .  S
O1501      C1506   1.263       .  A
O1501      V1504   1.892       .  S
O1502      C1505   1.263       .  A
O1502      V1504   1.891       .  S
C1505      C1564   1.476       .  S
C1506      C1576   1.471       .  S
C1507      C1636   1.470       .  S
C1508      C1729   1.478   1_655  S
O1509      V1517   1.898       .  S
O1510      V1517   1.896       .  S
O1511      C1521   1.263       .  A
O1511      V1517   1.896       .  S
O1512      C1522   1.263       .  A
O1513      C1522   1.263       .  A
O1513      V1518   1.894       .  S
O1514      C1521   1.263       .  A
O1515      C1520   1.262   1_565  A
O1515      V1518   1.894       .  S
O1516      C1519   1.265       .  A
O1516      V1518   1.896       .  S
C1519      C1600   1.487       .  S
C1520      C1708   1.488       .  S
C1521      C1549   1.475       .  S
C1522      C1537   1.471       .  S
O1523      C1533   1.261       .  A
O1523      V1531   1.890       .  S
O1524      C1534   1.263       .  A
O1524      V1531   1.887       .  S
O1525      C1535   1.263       .  A
O1525      V1531   1.892       .  S
O1526      C1536   1.263       .  A
O1526      V1531   1.893       .  S
O1527      C1536   1.263       .  A
O1527      V1532   1.895       .  S
O1528      C1535   1.264       .  A
O1528      V1532   1.896       .  S
O1529      C1534   1.265       .  A
O1529      V1532   1.903       .  S
O1530      C1533   1.267       .  A
O1530      V1532   1.902       .  S
V1531      V1532   2.086       .  T
C1533      C1588   1.483       .  S
C1534      C1684   1.484       .  S
C1535      C1552   1.476       .  S
C1536      C1540   1.470       .  S
C1537      C1538   1.404       .  A
C1537      C1542   1.413       .  A
C1538      C1539   1.398       .  A
C1538      H1547   1.084       .  S
C1539      C1540   1.412       .  A
C1539      S1543   1.804       .  S
C1540      C1541   1.402       .  A
C1541      C1542   1.396       .  A
C1541      H1548   1.084       .  S
C1542      S1544   1.804       .  S
S1543      H1546   1.407       .  S
S1544      H1545   1.407       .  S
C1549      C1550   1.404       .  A
C1549      C1554   1.414       .  A
C1550      C1551   1.395       .  A
C1550      H1559   1.085       .  S
C1551      C1552   1.414       .  A
C1551      S1555   1.804       .  S
C1552      C1553   1.405       .  A
C1553      C1554   1.398       .  A
C1553      H1560   1.084       .  S
C1554      S1556   1.803       .  S
S1555      H1558   1.408       .  S
S1556      H1557   1.407       .  S
C1561      C1562   1.403       .  A
C1562      C1563   1.395       .  A
C1562      H1571   1.084       .  S
C1563      C1564   1.414       .  A
C1563      S1567   1.803       .  S
C1565      C1566   1.397       .  A
C1565      H1572   1.084       .  S
C1566      S1568   1.803       .  S
S1567      H1570   1.408       .  S
S1568      H1569   1.407       .  S
C1573      C1578   1.412       .  A
C1574      C1575   1.395       .  A
C1574      H1583   1.084       .  S
C1575      S1579   1.804       .  S
C1576      C1577   1.405       .  A
C1577      C1578   1.397       .  A
C1577      H1584   1.084       .  S
C1578      S1580   1.804       .  S
S1579      H1582   1.408       .  S
S1580      H1581   1.408       .  S
C1585      C1586   1.402       .  A
C1585      C1590   1.414       .  A
C1586      C1587   1.399       .  A
C1586      H1595   1.085       .  S
C1587      C1588   1.418       .  A
C1587      S1591   1.801       .  S
C1588      C1589   1.404       .  A
C1589      C1590   1.397       .  A
C1589      H1596   1.085       .  S
C1590      S1592   1.803       .  S
S1591      H1594   1.408       .  S
S1592      H1593   1.407       .  S
C1597      C1602   1.413       .  A
C1598      C1599   1.403       .  A
C1598      H1607   1.083       .  S
C1599      S1603   1.810       .  S
C1600      C1601   1.407       .  A
C1601      C1602   1.398       .  A
C1601      H1608   1.084       .  S
C1602      S1604   1.803       .  S
S1603      H1606   1.406       .  S
S1604      H1605   1.408       .  S
C1609      C1610   1.402   1_556  A
C1609      C1614   1.414       .  A
C1610      C1611   1.396       .  A
C1610      H1619   1.084       .  S
C1611      C1612   1.415   1_554  A
C1611      S1615   1.803       .  S
C1612      C1613   1.404       .  A
C1613      C1614   1.397       .  A
C1613      H1620   1.084       .  S
C1614      S1616   1.804       .  S
S1615      H1618   1.408       .  S
S1616      H1617   1.407       .  S
C1621      C1622   1.404   1_556  A
C1621      C1626   1.416       .  A
C1622      C1623   1.398       .  A
C1622      H1631   1.084       .  S
C1623      C1624   1.416   1_554  A
C1623      S1627   1.803       .  S
C1624      C1625   1.404       .  A
C1625      C1626   1.396       .  A
C1625      H1632   1.084       .  S
C1626      S1628   1.804       .  S
S1627      H1630   1.408       .  S
S1628      H1629   1.408       .  S
C1633      C1634   1.406       .  A
C1634      C1635   1.394       .  A
C1634      H1643   1.084       .  S
C1635      S1639   1.804       .  S
C1636      C1637   1.401       .  A
C1637      C1638   1.403       .  A
C1637      H1644   1.084       .  S
C1638      S1640   1.801       .  S
S1639      H1642   1.407       .  S
S1640      H1641   1.408       .  S
C1645      C1646   1.404   1_565  A
C1646      C1647   1.396       .  A
C1646      H1655   1.085       .  S
C1647      C1648   1.413   1_545  A
C1647      S1651   1.804       .  S
C1649      C1650   1.397       .  A
C1649      H1656   1.084       .  S
C1650      S1652   1.803       .  S
S1651      H1654   1.408       .  S
S1652      H1653   1.406       .  S
C1657      C1662   1.412   1_545  A
C1658      C1659   1.400       .  A
C1658      H1667   1.084       .  S
C1659      S1663   1.803       .  S
C1660      C1661   1.403   1_545  A
C1661      C1662   1.395       .  A
C1661      H1668   1.084       .  S
C1662      S1664   1.804       .  S
S1663      H1666   1.408       .  S
S1664      H1665   1.407       .  S
C1669      C1674   1.409       .  A
C1670      C1671   1.400       .  A
C1670      H1679   1.084       .  S
C1671      S1675   1.800       .  S
C1672      C1673   1.409       .  A
C1673      C1674   1.401       .  A
C1673      H1680   1.083       .  S
C1674      S1676   1.809       .  S
S1675      H1678   1.408       .  S
S1676      H1677   1.407       .  S
C1681      C1682   1.404       .  A
C1681      C1686   1.409       .  A
C1682      C1683   1.405       .  A
C1682      H1691   1.080       .  S
C1683      C1684   1.417       .  A
C1683      S1687   1.809       .  S
C1684      C1685   1.406       .  A
C1685      C1686   1.392       .  A
C1685      H1692   1.083       .  S
C1686      S1688   1.803       .  S
S1687      H1690   1.407       .  S
S1688      H1689   1.406       .  S
C1693      C1694   1.403       .  A
C1693      C1698   1.412       .  A
C1694      C1695   1.402       .  A
C1694      H1703   1.083       .  S
C1695      C1696   1.417       .  A
C1695      S1699   1.810       .  S
C1696      C1697   1.406       .  A
C1697      C1698   1.398       .  A
C1697      H1704   1.084       .  S
C1698      S1700   1.803       .  S
S1699      H1702   1.407       .  S
S1700      H1701   1.408       .  S
C1705      C1706   1.398   1_545  A
C1706      C1707   1.397       .  A
C1706      H1715   1.085       .  S
C1707      C1708   1.421   1_565  A
C1707      S1711   1.801       .  S
C1709      C1710   1.399       .  A
C1709      H1716   1.083       .  S
C1710      S1712   1.804       .  S
S1711      H1714   1.408       .  S
S1712      H1713   1.406       .  S
C1717      C1722   1.417       .  A
C1718      C1719   1.399       .  A
C1718      H1727   1.084       .  S
C1719      S1723   1.803       .  S
C1720      C1721   1.401   1_545  A
C1721      C1722   1.397       .  A
C1721      H1728   1.084       .  S
C1722      S1724   1.800       .  S
S1723      H1726   1.408       .  S
S1724      H1725   1.408       .  S
C1729      C1734   1.412   1_455  A
C1730      C1731   1.403       .  A
C1730      H1739   1.083       .  S
C1731      C1732   1.418       .  A
C1731      S1735   1.809       .  S
C1733      C1734   1.399       .  A
C1733      H1740   1.084       .  S
C1734      S1736   1.803       .  S
S1735      H1738   1.407       .  S
S1736      H1737   1.407       .  S
C1741      C1742   1.401       .  A
C1741      C1746   1.413       .  A
C1742      C1743   1.395       .  A
C1742      H1751   1.083       .  S
C1743      C1744   1.413       .  A
C1743      S1747   1.804       .  S
C1744      C1745   1.402       .  A
C1745      C1746   1.397       .  A
C1745      H1752   1.084       .  S
C1746      S1748   1.804       .  S
S1747      H1750   1.407       .  S
S1748      H1749   1.407       .  S
C1753      C1754   1.406       .  A
C1753      C1758   1.417       .  A
C1754      C1755   1.397       .  A
C1754      H1763   1.084       .  S
C1755      C1756   1.417       .  A
C1755      S1759   1.802       .  S
C1756      C1757   1.405       .  A
C1757      C1758   1.393       .  A
C1757      H1764   1.084       .  S
C1758      S1760   1.802       .  S
S1759      H1762   1.408       .  S
S1760      H1761   1.408       .  S
C1765      C1770   1.410       .  A
C1766      C1767   1.399   1_455  A
C1766      H1775   1.084       .  S
C1767      S1771   1.800       .  S
C1768      C1769   1.409       .  A
C1769      C1770   1.398       .  A
C1769      H1776   1.083       .  S
C1770      S1772   1.804       .  S
S1771      H1774   1.407   1_655  S
S1772      H1773   1.406       .  S
C1777      C1782   1.414       .  A
C1778      C1779   1.397   1_545  A
C1778      H1787   1.084       .  S
C1779      S1783   1.803       .  S
C1781      C1782   1.399       .  A
C1781      H1788   1.085       .  S
C1782      S1784   1.800       .  S
S1783      H1786   1.408       .  S
S1784      H1785   1.408       .  S
C1789      C1790   1.402       .  A
C1789      C1794   1.413       .  A
C1790      C1791   1.398       .  A
C1790      H1799   1.084       .  S
C1791      C1792   1.414       .  A
C1791      S1795   1.803       .  S
C1792      C1793   1.402       .  A
C1793      C1794   1.395       .  A
C1793      H1800   1.084       .  S
C1794      S1796   1.801       .  S
S1795      H1798   1.408       .  S
S1796      H1797   1.404       .  S
C1801      C1802   1.404       .  A
C1801      C1806   1.413       .  A
C1802      C1803   1.398       .  A
C1802      H1811   1.083       .  S
C1803      C1804   1.411       .  A
C1803      S1807   1.808       .  S
C1804      C1805   1.404       .  A
C1805      C1806   1.399       .  A
C1805      H1812   1.084       .  S
C1806      S1808   1.803       .  S
S1807      H1810   1.407       .  S
S1808      H1809   1.408       .  S
C1814      C1815   1.397       .  A
C1814      H1823   1.084       .  S
C1815      S1819   1.804       .  S
C1817      C1818   1.397       .  A
C1817      H1824   1.085       .  S
C1818      S1820   1.801       .  S
S1819      H1822   1.406       .  S
S1820      H1821   1.408       .  S
