geometry optimzed in LAMMPS
_audit_creation_date              2020-12-01 
_audit_creation_method            'lammps2cif' 
_symmetry_space_group_name_H-M    'P1' 
_symmetry_Int_Tables_number       1 
_symmetry_cell_setting            triclinic 
loop_ 
_symmetry_equiv_pos_as_xyz 
  x,y,z 
_cell_length_a                    39.07549321 
_cell_length_b                    39.0081743886036 
_cell_length_c                    44.03217429070951 
_cell_angle_alpha                 90.18150029724303 
_cell_angle_beta                  89.37865830664954 
_cell_angle_gamma                 120.56674691602338 
loop_ 
_atom_site_label 
_atom_site_type_symbol 
_atom_site_fract_x 
_atom_site_fract_y 
_atom_site_fract_z 
_atom_site_charge 
O1          O  0.17847946  0.29651633  0.47028328    -0.73500
O2          O  0.21785814  0.04135909  0.03391519    -0.73500
O3          O  0.17918511  0.29400220  0.03242200    -0.73600
O4          O  0.21883958  0.04435189  0.47113223    -0.73600
O5          O  0.16221066  0.04505794  0.47056971    -0.73600
O6          O  0.12117791  0.29206893  0.03262206    -0.73500
O7          O  0.16035330  0.04026669  0.03170844    -0.73500
O8          O  0.12179110  0.29721619  0.47137639    -0.73600
Ni9        Ni  0.20090746  0.99995520  0.00324237     1.25400
Ni10       Ni  0.14019515  0.33771197  0.50076086     1.25400
C11         C  0.14238614  0.28240016  0.46174551     0.88700
C12         C  0.19532864  0.05502083  0.04215457     0.88600
C13         C  0.14363283  0.27920839  0.04226391     0.88600
C14         C  0.19786390  0.05808481  0.46068921     0.88800
C15         C  0.05789309  0.19214639  0.42551951     0.04100
C16         C  0.08030621  0.22363420  0.44508171    -0.12100
C17         C  0.12187907  0.24737560  0.44180241     0.01600
C18         C  0.14161003  0.23784810  0.41938444    -0.10600
C19         C  0.11938899  0.20534906  0.39991306     0.04000
C20         C  0.07748179  0.18318728  0.40293088    -0.10000
H21         H  0.06490481  0.23018309  0.46273402     0.09600
H22         H  0.17363590  0.25558576  0.41700464     0.07200
H23         H  0.05989017  0.15827729  0.38803269     0.07000
C24         C  0.27812278  0.13700111  0.41051237     0.04100
C25         C  0.25848113  0.10944702  0.43385244    -0.12100
C26         C  0.21665236  0.08938225  0.43704293     0.01600
C27         C  0.19439980  0.09838182  0.41695485    -0.10900
C28         C  0.21406076  0.12664031  0.39369868     0.04000
C29         C  0.25566607  0.14477904  0.39034274    -0.10000
H30         H  0.27592787  0.10287928  0.44915566     0.09600
H31         H  0.16240452  0.08381068  0.41944973     0.07200
H32         H  0.27105635  0.16601696  0.37216281     0.07000
O33         O  0.03962754  0.16058093  0.20150615    -0.73500
O34         O  0.29357540  0.12069688  0.13629153    -0.73500
O35         O  0.04080012  0.15854431  0.14022462    -0.73600
O36         O  0.29303091  0.12003754  0.19768212    -0.73600
O37         O  0.29403029  0.17766650  0.19830296    -0.73600
O38         O  0.04371459  0.21698829  0.13803942    -0.73500
O39         O  0.29698749  0.17944416  0.13702977    -0.73500
O40         O  0.04040296  0.21804011  0.19948292    -0.73600
Ni41       Ni  0.99997017  0.13779925  0.16960470     1.25400
Ni42       Ni  0.00191439  0.19989356  0.16883680     1.25400
C43         C  0.05372804  0.19685913  0.21019673     0.88700
C44         C  0.28221092  0.14434108  0.12646795     0.88600
C45         C  0.05579146  0.19341161  0.12906829     0.88600
C46         C  0.27918709  0.14142710  0.20737530     0.88800
C47         C  0.20470963  0.14738985  0.07817293     0.04100
C48         C  0.19174592  0.11348448  0.06021763    -0.12100
C49         C  0.20913403  0.08946330  0.06273827     0.01600
C50         C  0.23881581  0.09895786  0.08446185    -0.10600
C51         C  0.25129342  0.13252559  0.10310637     0.04000
C52         C  0.23452095  0.15680400  0.09919197    -0.10000
H53         H  0.16898041  0.10666279  0.04352764     0.09600
H54         H  0.25197378  0.08047972  0.08680939     0.07200
H55         H  0.24398250  0.18303980  0.11309704     0.07000
C56         C  0.13324021  0.18801323  0.08068694     0.04100
C57         C  0.10400105  0.18012302  0.10243799    -0.12100
C58         C  0.08733146  0.20468552  0.10570933     0.01600
C59         C  0.09979965  0.23734429  0.08596904    -0.10600
C60         C  0.12919206  0.24550491  0.06373470     0.04000
C61         C  0.14601102  0.22094106  0.06159257    -0.10000
H62         H  0.09461610  0.15463503  0.11722528     0.09600
H63         H  0.08682878  0.25607690  0.08782110     0.07200
H64         H  0.16825415  0.22664838  0.04430467     0.07000
O65         O  0.21322535  0.17588454  0.30215224    -0.73500
O66         O  0.17411112  0.21548475  0.36696679    -0.73500
O67         O  0.21464887  0.17610693  0.36351889    -0.73600
O68         O  0.17545469  0.21759623  0.30563629    -0.73600
O69         O  0.11703509  0.16108110  0.30443901    -0.73600
O70         O  0.15744359  0.11820362  0.36485698    -0.73500
O71         O  0.11682270  0.15774160  0.36587399    -0.73500
O72         O  0.15479442  0.11936016  0.30358680    -0.73600
Ni73       Ni  0.19639850  0.19831493  0.33462884     1.25400
Ni74       Ni  0.13444104  0.13706584  0.33475956     1.25400
C75         C  0.18968473  0.14035277  0.29243154     0.88700
C76         C  0.13821400  0.19265801  0.37659156     0.88600
C77         C  0.19369673  0.14054337  0.37334274     0.88600
C78         C  0.14045053  0.19700299  0.29517549     0.88800
C79         C  0.18591922  0.05882469  0.24379633     0.04100
C80         C  0.21965650  0.07985314  0.22545342    -0.12100
C81         C  0.24422203  0.12161095  0.22789724     0.01600
C82         C  0.23502361  0.14233741  0.24969479    -0.10600
C83         C  0.20131981  0.12117130  0.26864304     0.04000
C84         C  0.17682685  0.07961176  0.26494955    -0.10000
H85         H  0.22615645  0.06356920  0.20861816     0.09600
H86         H  0.25390961  0.17427717  0.25199972     0.07200
H87         H  0.15070918  0.06268902  0.27920904     0.07000
C88         C  0.14460917  0.27958424  0.24805452     0.04100
C89         C  0.15298768  0.25851200  0.26918252    -0.12100
C90         C  0.12872696  0.21683739  0.27238828     0.01600
C91         C  0.09588302  0.19588820  0.25316863    -0.10600
C92         C  0.08726581  0.21684998  0.23149166     0.04000
C93         C  0.11154314  0.25874718  0.22949590    -0.10000
H94         H  0.17864473  0.27518921  0.28353408     0.09600
H95         H  0.07744953  0.16381822  0.25493665     0.07200
H96         H  0.10565156  0.27522390  0.21263991     0.07000
C97         C  0.15939315  0.01503629  0.24134295    -0.15500
C98         C  0.17183565  0.32327883  0.24529395    -0.30700
H99         H  0.12760612  0.00274208  0.24439528     0.13500
H100        H  0.20347732  0.33496066  0.24813701     0.14100
C101        C  0.14924011  0.16071600  0.07814081    -0.15500
C102        C  0.18830250  0.17415968  0.07516231    -0.30700
H103        H  0.12902339  0.12916085  0.08230029     0.13500
H104        H  0.20910456  0.20606267  0.07457805     0.14100
C105        C  0.32201108  0.15746656  0.40617290    -0.15500
C106        C  0.01408152  0.16871448  0.42977862    -0.30700
H107        H  0.33378303  0.16522789  0.38314870     0.13500
H108        H  0.00247510  0.16491456  0.45283904     0.14100
O109        O  0.17914081  0.29175544  0.97118937    -0.73500
O110        O  0.21851557  0.04519774  0.53266981    -0.73500
O111        O  0.18055675  0.29937860  0.53122524    -0.73600
O112        O  0.22041699  0.03938527  0.97262568    -0.73600
O113        O  0.16387431  0.04010792  0.97040070    -0.73600
O114        O  0.12240355  0.29709815  0.53242025    -0.73500
O115        O  0.16114328  0.04443328  0.53214307    -0.73500
O116        O  0.12191318  0.29136559  0.97144524    -0.73600
Ni117      Ni  0.20030813  0.00450086  0.50130343     1.25400
Ni118      Ni  0.13924939  0.33207441  0.00060718     1.25400
C119        C  0.14318339  0.27721288  0.96204689     0.88700
C120        C  0.19613732  0.05832446  0.54244859     0.88600
C121        C  0.14499485  0.28397093  0.54120342     0.88600
C122        C  0.19985169  0.05309247  0.96131755     0.88800
C123        C  0.06021330  0.18751713  0.92369428     0.04100
C124        C  0.08192981  0.21829030  0.94405561    -0.12100
C125        C  0.12354552  0.24262464  0.94143775     0.01600
C126        C  0.14399058  0.23435655  0.91877216    -0.10600
C127        C  0.12249608  0.20261718  0.89842998     0.04000
C128        C  0.08056686  0.17995909  0.90082072    -0.10000
H129        H  0.06594061  0.22382516  0.96185200     0.09600
H130        H  0.17604188  0.25245483  0.91690039     0.07200
H131        H  0.06362552  0.15557554  0.88533097     0.07000
C132        C  0.28135078  0.13161307  0.91141295     0.04100
C133        C  0.26120120  0.10332373  0.93424370    -0.12100
C134        C  0.21942822  0.08442395  0.93772214     0.01600
C135        C  0.19787323  0.09516991  0.91833395    -0.10900
C136        C  0.21810967  0.12414427  0.89566398     0.04000
C137        C  0.25952308  0.14121614  0.89204111    -0.10000
H138        H  0.27821354  0.09551958  0.94899678     0.09600
H139        H  0.16597328  0.08148306  0.92098010     0.07200
H140        H  0.27526632  0.16297324  0.87422864     0.07000
O141        O  0.04941668  0.15867327  0.69871398    -0.73500
O142        O  0.29775921  0.11793060  0.63723079    -0.73500
O143        O  0.04596326  0.15749795  0.63742335    -0.73600
O144        O  0.30107613  0.11667702  0.69851005    -0.73600
O145        O  0.30100166  0.17366344  0.70123528    -0.73600
O146        O  0.04740388  0.21531788  0.63757684    -0.73500
O147        O  0.29949905  0.17583528  0.63999210    -0.73500
O148        O  0.04914126  0.21566145  0.69888192    -0.73600
Ni149      Ni  0.00726752  0.13573965  0.66871754     1.25400
Ni150      Ni  0.00797279  0.19722638  0.67020786     1.25400
C151        C  0.06362965  0.19471714  0.70797337     0.88700
C152        C  0.28435658  0.14067189  0.62939386     0.88600
C153        C  0.06006656  0.19280020  0.62725481     0.88600
C154        C  0.28778161  0.13763945  0.71018024     0.88800
C155        C  0.19692880  0.13829228  0.59181401     0.04100
C156        C  0.18819950  0.11037043  0.56875920    -0.12100
C157        C  0.20936810  0.08997554  0.56577712     0.01600
C158        C  0.24079508  0.09898656  0.58580078    -0.10600
C159        C  0.25021572  0.12755161  0.60878188     0.04000
C160        C  0.22743464  0.14614800  0.61186060    -0.10000
H161        H  0.16398959  0.10374106  0.55356559     0.09600
H162        H  0.25765768  0.08404505  0.58353581     0.07200
H163        H  0.23384820  0.16758003  0.62984485     0.07000
C164        C  0.14046209  0.19449326  0.57756255     0.04100
C165        C  0.11188317  0.18494379  0.60041414    -0.12100
C166        C  0.09180704  0.20639887  0.60374655     0.01600
C167        C  0.10181190  0.23894459  0.58431337    -0.10600
C168        C  0.13104322  0.24913940  0.56155392     0.04000
C169        C  0.14921969  0.22600394  0.55803588    -0.10000
H170        H  0.10469229  0.16002973  0.61526727     0.09600
H171        H  0.08719667  0.25608531  0.58689012     0.07200
H172        H  0.17108838  0.23295403  0.54013601     0.07000
O173        O  0.22374348  0.17577274  0.80592020    -0.73500
O174        O  0.17870224  0.21405410  0.86691038    -0.73500
O175        O  0.21974128  0.17520892  0.86687061    -0.73600
O176        O  0.18470368  0.21661778  0.80540950    -0.73600
O177        O  0.12684523  0.15973301  0.80225504    -0.73600
O178        O  0.16288805  0.11693450  0.86586624    -0.73500
O179        O  0.12179931  0.15614636  0.86383874    -0.73500
O180        O  0.16555431  0.11883008  0.80488840    -0.73600
Ni181      Ni  0.20366680  0.19754063  0.83636048     1.25400
Ni182      Ni  0.14212893  0.13593230  0.83418751     1.25400
C183        C  0.20173018  0.13994471  0.79629898     0.88700
C184        C  0.14235973  0.19080482  0.87529894     0.88600
C185        C  0.19849414  0.13916580  0.87565693     0.88600
C186        C  0.15067210  0.19567919  0.79330727     0.88800
C187        C  0.20822029  0.05656561  0.75956032     0.04100
C188        C  0.23674357  0.07644737  0.73678440    -0.12100
C189        C  0.25645997  0.11836405  0.73388538     0.01600
C190        C  0.24615140  0.14024168  0.75370902    -0.10600
C191        C  0.21696242  0.12015492  0.77635106     0.04000
C192        C  0.19927915  0.07864767  0.77952539    -0.10000
H193        H  0.24390843  0.05907158  0.72155614     0.09600
H194        H  0.26021818  0.17223988  0.75134238     0.07200
H195        H  0.17726804  0.06298957  0.79726611     0.07000
C196        C  0.15616983  0.27729446  0.74406261     0.04100
C197        C  0.16487355  0.25652138  0.76523897    -0.12100
C198        C  0.14018661  0.21502697  0.76914663     0.01600
C199        C  0.10707889  0.19389444  0.75010052    -0.10600
C200        C  0.09837096  0.21461392  0.72821749     0.04000
C201        C  0.12285513  0.25637054  0.72578355    -0.10000
H202        H  0.19064996  0.27339456  0.77943371     0.09600
H203        H  0.08807933  0.16196278  0.75253295     0.07200
H204        H  0.11658321  0.27274169  0.70908160     0.07000
C205        C  0.18717556  0.01269864  0.76327628    -0.15500
C206        C  0.18243832  0.32104414  0.74161759    -0.30700
H207        H  0.17958972  0.00085964  0.78624358     0.13500
H208        H  0.21437041  0.33332948  0.74261121     0.14100
C209        C  0.16094927  0.17143562  0.57299248    -0.15500
C210        C  0.17377983  0.15871856  0.59625485    -0.30700
H211        H  0.16858762  0.16775993  0.54988322     0.13500
H212        H  0.16988535  0.16624371  0.61932301     0.14100
C213        C  0.32516638  0.15144593  0.90693946    -0.15500
C214        C  0.01633413  0.16324920  0.92755485    -0.30700
H215        H  0.33688847  0.15976789  0.88394057     0.13500
H216        H  0.00432422  0.15912448  0.95050834     0.14100
O217        O  0.17902540  0.63323653  0.47012020    -0.73500
O218        O  0.21717585  0.37469011  0.03272880    -0.73500
O219        O  0.17607767  0.62650424  0.02821592    -0.73600
O220        O  0.21952720  0.37717272  0.46959207    -0.73600
O221        O  0.16290182  0.37779519  0.46868420    -0.73600
O222        O  0.11855805  0.62551483  0.02928582    -0.73500
O223        O  0.15933244  0.37273856  0.02999681    -0.73500
O224        O  0.12179766  0.63288415  0.47153310    -0.73600
Ni225      Ni  0.20094755  0.33345696  0.00190611     1.25400
Ni226      Ni  0.13917590  0.67209943  0.50180048     1.25400
C227        C  0.14291750  0.61886775  0.46151567     0.88700
C228        C  0.19385343  0.38727426  0.04130383     0.88600
C229        C  0.14042030  0.61150432  0.03796398     0.88600
C230        C  0.19847228  0.39055043  0.45868364     0.88800
C231        C  0.05924597  0.52824784  0.42500262     0.04100
C232        C  0.08130574  0.55983355  0.44456897    -0.12100
C233        C  0.12284919  0.58419997  0.44123391     0.01600
C234        C  0.14297298  0.57525084  0.41876992    -0.10600
C235        C  0.12114745  0.54265922  0.39932783     0.04000
C236        C  0.07922930  0.51996577  0.40231720    -0.10000
H237        H  0.06565159  0.56585650  0.46234242     0.09600
H238        H  0.17498529  0.59332129  0.41646717     0.07200
H239        H  0.06194557  0.49495285  0.38743164     0.07000
C240        C  0.27952450  0.46945346  0.40909382     0.04100
C241        C  0.25889986  0.43927858  0.43033557    -0.12100
C242        C  0.21747815  0.42160271  0.43475021     0.01600
C243        C  0.19619495  0.43365362  0.41624655    -0.10900
C244        C  0.21664728  0.46384543  0.39429759     0.04000
C245        C  0.25840919  0.48191986  0.39135776    -0.10000
H246        H  0.27585760  0.43027075  0.44407341     0.09600
H247        H  0.16430837  0.41995771  0.41897932     0.07200
H248        H  0.27454919  0.50495569  0.37449626     0.07000
O249        O  0.04347467  0.49193054  0.19818375    -0.73500
O250        O  0.29156382  0.44985170  0.13803994    -0.73500
O251        O  0.04113372  0.48833674  0.13671156    -0.73600
O252        O  0.29346439  0.45227627  0.19920206    -0.73600
O253        O  0.29355013  0.50945625  0.19855593    -0.73600
O254        O  0.04274028  0.54616084  0.13445904    -0.73500
O255        O  0.29362566  0.50801885  0.13741698    -0.73500
O256        O  0.04353442  0.54902365  0.19586237    -0.73600
Ni257      Ni  0.00194471  0.46808021  0.16786388     1.25400
Ni258      Ni  0.00297419  0.52974730  0.16675478     1.25400
C259        C  0.05750736  0.52829216  0.20644566     0.88700
C260        C  0.27846046  0.47212053  0.12842719     0.88600
C261        C  0.05514763  0.52299025  0.12518616     0.88600
C262        C  0.27940797  0.47368127  0.20847510     0.88800
C263        C  0.18963852  0.46519716  0.09005471     0.04100
C264        C  0.18243963  0.43753956  0.06707391    -0.12100
C265        C  0.20524761  0.41876063  0.06452461     0.01600
C266        C  0.23656632  0.42908922  0.08492092    -0.10600
C267        C  0.24439014  0.45742716  0.10772576     0.04000
C268        C  0.22015626  0.47439638  0.11041779    -0.10000
H269        H  0.15826655  0.42994188  0.05158464     0.09600
H270        H  0.25468388  0.41545091  0.08301092     0.07200
H271        H  0.22555652  0.49571717  0.12829037     0.07000
C272        C  0.13296946  0.52072304  0.07453561     0.04100
C273        C  0.10486519  0.51227510  0.09761510    -0.12100
C274        C  0.08616748  0.53502063  0.10112437     0.01600
C275        C  0.09685768  0.56747736  0.08136696    -0.10600
C276        C  0.12548543  0.57644768  0.05827323     0.04000
C277        C  0.14245241  0.55224734  0.05478188    -0.10000
H278        H  0.09714141  0.48737705  0.11263158     0.09600
H279        H  0.08336090  0.58564272  0.08404509     0.07200
H280        H  0.16408827  0.55850847  0.03682490     0.07000
O281        O  0.21468221  0.51155844  0.30223422    -0.73500
O282        O  0.17615568  0.55261519  0.36660554    -0.73500
O283        O  0.21716894  0.51335609  0.36371432    -0.73600
O284        O  0.17671910  0.55343755  0.30520250    -0.73600
O285        O  0.11848940  0.49664274  0.30473289    -0.73600
O286        O  0.15992474  0.45555573  0.36578999    -0.73500
O287        O  0.11901472  0.49471884  0.36610718    -0.73500
O288        O  0.15633515  0.45503905  0.30459280    -0.73600
Ni289      Ni  0.19825417  0.53482484  0.33446876     1.25400
Ni290      Ni  0.13640276  0.47349741  0.33541438     1.25400
C291        C  0.19102825  0.47571776  0.29309382     0.88700
C292        C  0.14028190  0.52987051  0.37636009     0.88600
C293        C  0.19630023  0.47799373  0.37400680     0.88600
C294        C  0.14158105  0.53242197  0.29502444     0.88800
C295        C  0.18576646  0.39255535  0.24564788     0.04100
C296        C  0.21980327  0.41270073  0.22745685    -0.12100
C297        C  0.24479303  0.45446668  0.22936541     0.01600
C298        C  0.23598179  0.47601144  0.25068505    -0.10600
C299        C  0.20217686  0.45570096  0.26963551     0.04000
C300        C  0.17703621  0.41414988  0.26627149    -0.10000
H301        H  0.22607046  0.39577810  0.21105876     0.09600
H302        H  0.25522067  0.50795344  0.25258770     0.07200
H303        H  0.15067602  0.39782094  0.28040208     0.07000
C304        C  0.14496143  0.61288028  0.24534865     0.04100
C305        C  0.15180313  0.59326461  0.26891339    -0.12100
C306        C  0.12942581  0.55131677  0.27169071     0.01600
C307        C  0.09856123  0.52905135  0.25103854    -0.10600
C308        C  0.09108357  0.54877903  0.22758411     0.04000
C309        C  0.11516918  0.59040298  0.22463018    -0.10000
H310        H  0.17558109  0.61077905  0.28461242     0.09600
H311        H  0.08075099  0.49696436  0.25312249     0.07200
H312        H  0.11019443  0.60579185  0.20627448     0.07000
C313        C  0.15851408  0.34886676  0.24351523    -0.15500
C314        C  0.16900523  0.65675556  0.24118596    -0.30700
H315        H  0.12669500  0.33745596  0.24423640     0.13500
H316        H  0.17343399  0.66829127  0.21814672     0.14100
C317        C  0.15290733  0.49708044  0.07036732    -0.15500
C318        C  0.16536608  0.48447985  0.09392761    -0.30700
H319        H  0.16106748  0.49345844  0.04741081     0.13500
H320        H  0.16100108  0.49202290  0.11686778     0.14100
C321        C  0.32315703  0.48675903  0.40570437    -0.15500
C322        C  0.01542934  0.50389836  0.42936741    -0.30700
H323        H  0.33472000  0.46672027  0.40749243     0.13500
H324        H  0.00372051  0.50020346  0.45238750     0.14100
O325        O  0.17667009  0.62784080  0.96674213    -0.73500
O326        O  0.21950618  0.37995058  0.53113409    -0.73500
O327        O  0.18004451  0.63342899  0.53103808    -0.73600
O328        O  0.21977860  0.37268816  0.97119100    -0.73600
O329        O  0.16256875  0.37200252  0.96852434    -0.73600
O330        O  0.12156900  0.63052213  0.53245984    -0.73500
O331        O  0.16167575  0.37825605  0.53038538    -0.73500
O332        O  0.12029662  0.62897527  0.96798720    -0.73600
Ni333      Ni  0.20161210  0.33844643  0.50054621     1.25400
Ni334      Ni  0.13785400  0.66759977  0.99877383     1.25400
C335        C  0.14125181  0.61525316  0.95704283     0.88700
C336        C  0.19673556  0.39268895  0.54070356     0.88600
C337        C  0.14437127  0.61750709  0.54085397     0.88600
C338        C  0.19870457  0.38560935  0.95956765     0.88800
C339        C  0.05990067  0.53583570  0.90918299     0.04100
C340        C  0.08077031  0.56660701  0.92967039    -0.12100
C341        C  0.12211428  0.58383732  0.93359302     0.01600
C342        C  0.14305557  0.57075604  0.91526415    -0.10600
C343        C  0.12230961  0.53997406  0.89402137     0.04000
C344        C  0.08064233  0.52234891  0.89162782    -0.10000
H345        H  0.06401255  0.57632492  0.94329937     0.09600
H346        H  0.17489494  0.58414258  0.91756748     0.07200
H347        H  0.06428916  0.49887829  0.87529834     0.07000
C348        C  0.27997231  0.46399700  0.90948177     0.04100
C349        C  0.25982847  0.43592405  0.93241747    -0.12100
C350        C  0.21803315  0.41679470  0.93578226     0.01600
C351        C  0.19642080  0.42722648  0.91614785    -0.10900
C352        C  0.21665431  0.45603091  0.89330371     0.04000
C353        C  0.25811826  0.47318143  0.88979536    -0.10000
H354        H  0.27693291  0.42846927  0.94736669     0.09600
H355        H  0.16451207  0.41346774  0.91875543     0.07200
H356        H  0.27391047  0.49479446  0.87191131     0.07000
O357        O  0.04886557  0.49290497  0.69770185    -0.73500
O358        O  0.29771765  0.45246872  0.63551686    -0.73500
O359        O  0.04542163  0.49105915  0.63646578    -0.73600
O360        O  0.29983984  0.45137661  0.69673035    -0.73600
O361        O  0.30026548  0.50868247  0.69876541    -0.73600
O362        O  0.04654163  0.54872534  0.63623848    -0.73500
O363        O  0.29996458  0.51066857  0.63765375    -0.73500
O364        O  0.04822313  0.54971444  0.69750201    -0.73600
Ni365      Ni  0.00686549  0.46951158  0.66768853     1.25400
Ni366      Ni  0.00713118  0.53080071  0.66889588     1.25400
C367        C  0.06266727  0.52890282  0.70691858     0.88700
C368        C  0.28460790  0.47534643  0.62736140     0.88600
C369        C  0.05933795  0.52620526  0.62612687     0.88600
C370        C  0.28609518  0.47242329  0.70747317     0.88800
C371        C  0.19636909  0.47184374  0.59031724     0.04100
C372        C  0.18784871  0.44404804  0.56719385    -0.12100
C373        C  0.20959088  0.42429113  0.56397083     0.01600
C374        C  0.24124373  0.43369606  0.58382665    -0.10600
C375        C  0.25039802  0.46206910  0.60686666     0.04000
C376        C  0.22716802  0.48013559  0.61019824    -0.10000
H377        H  0.16341387  0.43703758  0.55213192     0.09600
H378        H  0.25848388  0.41916717  0.58140593     0.07200
H379        H  0.23345469  0.50146403  0.62824130     0.07000
C380        C  0.13941151  0.52746236  0.57630747     0.04100
C381        C  0.11074953  0.51781395  0.59911346    -0.12100
C382        C  0.09097317  0.53954870  0.60264103     0.01600
C383        C  0.10120439  0.57223999  0.58343807    -0.10600
C384        C  0.13043483  0.58244907  0.56075309     0.04000
C385        C  0.14849340  0.55926887  0.55701564    -0.10000
H386        H  0.10335443  0.49270269  0.61380344     0.09600
H387        H  0.08679687  0.58956111  0.58616775     0.07200
H388        H  0.17048613  0.56643048  0.53917518     0.07000
O389        O  0.21982458  0.50663920  0.80244047    -0.73500
O390        O  0.17884101  0.54737572  0.86497601    -0.73500
O391        O  0.21858881  0.50680465  0.86381275    -0.73600
O392        O  0.18268191  0.54901696  0.80374645    -0.73600
O393        O  0.12394586  0.49289227  0.80187559    -0.73600
O394        O  0.16100518  0.44924448  0.86415794    -0.73500
O395        O  0.12119837  0.48997822  0.86334438    -0.73500
O396        O  0.16101731  0.45049627  0.80290004    -0.73600
Ni397      Ni  0.20203396  0.52947261  0.83388759     1.25400
Ni398      Ni  0.13969275  0.46863195  0.83315442     1.25400
C399        C  0.19641012  0.47119589  0.79253436     0.88700
C400        C  0.14236859  0.52525734  0.87356181     0.88600
C401        C  0.19705043  0.47106595  0.87320079     0.88600
C402        C  0.14800513  0.52866400  0.79263766     0.88800
C403        C  0.19418728  0.38947439  0.74513271     0.04100
C404        C  0.22780017  0.41053073  0.72667041    -0.12100
C405        C  0.25189600  0.45234500  0.72871988     0.01600
C406        C  0.24239395  0.47308176  0.75032925    -0.10600
C407        C  0.20878072  0.45187412  0.76938332     0.04000
C408        C  0.18477086  0.41023690  0.76607796    -0.10000
H409        H  0.23439480  0.39421671  0.70992761     0.09600
H410        H  0.26076948  0.50512847  0.75221566     0.07200
H411        H  0.15870485  0.39330768  0.78038598     0.07000
C412        C  0.15289670  0.61139589  0.74531453     0.04100
C413        C  0.16124357  0.59029510  0.76644122    -0.12100
C414        C  0.13719447  0.54857598  0.76928308     0.01600
C415        C  0.10489344  0.52767413  0.74958264    -0.10600
C416        C  0.09658183  0.54872831  0.72779249     0.04000
C417        C  0.12051738  0.59060233  0.72615502    -0.10000
H418        H  0.18636746  0.60697182  0.78127679     0.09600
H419        H  0.08639351  0.49560014  0.75127385     0.07200
H420        H  0.11457586  0.60716857  0.70940595     0.07000
C421        C  0.16792831  0.34570207  0.74274854    -0.15500
C422        C  0.17890588  0.65522981  0.74349019    -0.30700
H423        H  0.13605951  0.33325359  0.74536443     0.13500
H424        H  0.21077487  0.66774956  0.74559104     0.14100
C425        C  0.15980356  0.50436649  0.57165274    -0.15500
C426        C  0.17286745  0.49185183  0.59487922    -0.30700
H427        H  0.16737834  0.50070600  0.54851931     0.13500
H428        H  0.16905259  0.49941333  0.61795873     0.14100
C429        C  0.32385706  0.48404065  0.90534379    -0.15500
C430        C  0.01634350  0.51869682  0.90654422    -0.30700
H431        H  0.33586253  0.49196698  0.88239067     0.13500
H432        H  0.00492510  0.53890849  0.90798043     0.14100
O433        O  0.17682301  0.96350441  0.47021481    -0.73500
O434        O  0.21588206  0.70753002  0.03088043    -0.73500
O435        O  0.17839300  0.96023303  0.03364618    -0.73600
O436        O  0.21907286  0.71400306  0.47156507    -0.73600
O437        O  0.16178928  0.71338995  0.47076082    -0.73600
O438        O  0.12081787  0.95916119  0.03368661    -0.73500
O439        O  0.15841970  0.70657616  0.02947203    -0.73500
O440        O  0.12026007  0.96438516  0.47223771    -0.73600
Ni441      Ni  0.19887466  0.66759187  0.99891911     1.25400
Ni442      Ni  0.13922621  0.00444752  0.50211194     1.25400
C443        C  0.14069266  0.94976717  0.46182965     0.88700
C444        C  0.19332810  0.72080833  0.03996037     0.88600
C445        C  0.14262374  0.94539466  0.04305191     0.88600
C446        C  0.19764491  0.72719120  0.46108041     0.88800
C447        C  0.05612333  0.86082240  0.42378721     0.04100
C448        C  0.07841778  0.89169215  0.44397135    -0.12100
C449        C  0.12006237  0.91554327  0.44100191     0.01600
C450        C  0.13987084  0.90684187  0.41808637    -0.10600
C451        C  0.11780148  0.87508759  0.39792570     0.04000
C452        C  0.07592819  0.85278474  0.40074634    -0.10000
H453        H  0.06291550  0.89756056  0.46195992     0.09600
H454        H  0.17192807  0.92452491  0.41597237     0.07200
H455        H  0.05860793  0.82829355  0.38543774     0.07000
C456        C  0.27733159  0.80574554  0.41042176     0.04100
C457        C  0.25787547  0.77801554  0.43365047    -0.12100
C458        C  0.21618688  0.75868835  0.43754934     0.01600
C459        C  0.19391276  0.76861213  0.41822579    -0.10900
C460        C  0.21349245  0.79714718  0.39511339     0.04000
C461        C  0.25490955  0.81455307  0.39107003    -0.10000
H462        H  0.27539786  0.77075493  0.44829892     0.09600
H463        H  0.16201018  0.75450250  0.42114298     0.07200
H464        H  0.27017637  0.83589476  0.37292180     0.07000
O465        O  0.04067102  0.82584711  0.19976396    -0.73500
O466        O  0.29066820  0.78407963  0.13635513    -0.73500
O467        O  0.03688107  0.82018226  0.13849930    -0.73600
O468        O  0.29226159  0.78461978  0.19797359    -0.73600
O469        O  0.29256024  0.84183274  0.19903285    -0.73600
O470        O  0.03875851  0.87808184  0.13558595    -0.73500
O471        O  0.29304983  0.84230779  0.13742285    -0.73500
O472        O  0.04042270  0.88275126  0.19698772    -0.73600
Ni473      Ni  0.99853479  0.80077092  0.16998933     1.25400
Ni474      Ni  0.99932397  0.86228266  0.16807768     1.25400
C475        C  0.05484034  0.86241673  0.20758155     0.88700
C476        C  0.27860542  0.80727701  0.12677770     0.88600
C477        C  0.05081464  0.85454131  0.12653187     0.88600
C478        C  0.27916332  0.80609920  0.20885605     0.88800
C479        C  0.20114319  0.81092078  0.07880258     0.04100
C480        C  0.18929068  0.77822792  0.05969766    -0.12100
C481        C  0.20684067  0.75429157  0.06157270     0.01600
C482        C  0.23600758  0.76290901  0.08366759    -0.10600
C483        C  0.24749462  0.79537449  0.10344698     0.04000
C484        C  0.23013512  0.81926223  0.10032347    -0.10000
H485        H  0.16720675  0.77228860  0.04260498     0.09600
H486        H  0.24955235  0.74471632  0.08538073     0.07200
H487        H  0.23874620  0.84459337  0.11509499     0.07000
C488        C  0.12903304  0.85085050  0.07787172     0.04100
C489        C  0.09798085  0.84101444  0.09835093    -0.12100
C490        C  0.08185276  0.86589884  0.10264895     0.01600
C491        C  0.09599747  0.90033042  0.08453046    -0.10600
C492        C  0.12691953  0.91022326  0.06328288     0.04000
C493        C  0.14368485  0.88564191  0.06064256    -0.10000
H494        H  0.08731019  0.81415271  0.11176290     0.09600
H495        H  0.08343792  0.91934935  0.08710422     0.07200
H496        H  0.16737401  0.89277430  0.04433979     0.07000
O497        O  0.21662933  0.84614676  0.30457555    -0.73500
O498        O  0.17311416  0.88588964  0.36561294    -0.73500
O499        O  0.21418626  0.84716661  0.36558272    -0.73600
O500        O  0.17758028  0.88695129  0.30409125    -0.73600
O501        O  0.11961411  0.83001654  0.30214325    -0.73600
O502        O  0.15747056  0.78873684  0.36566488    -0.73500
O503        O  0.11624157  0.82778863  0.36379024    -0.73500
O504        O  0.15845361  0.78913740  0.30459251    -0.73600
Ni505      Ni  0.19731847  0.86864705  0.33499935     1.25400
Ni506      Ni  0.13579650  0.80692204  0.33405211     1.25400
C507        C  0.19440959  0.81010954  0.29545240     0.88700
C508        C  0.13704617  0.86276086  0.37466542     0.88600
C509        C  0.19326001  0.81136674  0.37497567     0.88600
C510        C  0.14317224  0.86577897  0.29265180     0.88800
C511        C  0.20136904  0.72622922  0.26002907     0.04100
C512        C  0.22919904  0.74575729  0.23676789    -0.12100
C513        C  0.24810378  0.78750421  0.23286448     0.01600
C514        C  0.23782746  0.80966616  0.25237324    -0.10600
C515        C  0.20929213  0.78997268  0.27554676     0.04000
C516        C  0.19221921  0.74860483  0.27953169    -0.10000
H517        H  0.23661655  0.72820141  0.22196139     0.09600
H518        H  0.25149029  0.84154859  0.24943572     0.07200
H519        H  0.17071503  0.73332230  0.29764907     0.07000
C520        C  0.14726056  0.94644076  0.24295010     0.04100
C521        C  0.15643519  0.92612632  0.26423449    -0.12100
C522        C  0.13197289  0.88468845  0.26861272     0.01600
C523        C  0.09856361  0.86313436  0.24997616    -0.10600
C524        C  0.08937800  0.88329680  0.22792954     0.04000
C525        C  0.11358805  0.92506061  0.22505271    -0.10000
H526        H  0.18249224  0.94331369  0.27809481     0.09600
H527        H  0.07984599  0.83120841  0.25269324     0.07200
H528        H  0.10697299  0.94101142  0.20821223     0.07000
C529        C  0.18135113  0.68243980  0.26457333    -0.15500
C530        C  0.17362889  0.99015065  0.23991321    -0.30700
H531        H  0.17314574  0.67099135  0.28760757     0.13500
H532        H  0.20555904  0.00228114  0.24049107     0.14100
C533        C  0.14549598  0.82401295  0.07496748    -0.15500
C534        C  0.18470942  0.83778594  0.07636825    -0.30700
H535        H  0.12487239  0.79206691  0.07549642     0.13500
H536        H  0.20495330  0.86952378  0.07942902     0.14100
C537        C  0.32104538  0.82558433  0.40558421    -0.15500
C538        C  0.01225118  0.83678863  0.42797586    -0.30700
H539        H  0.33255635  0.83363388  0.38251340     0.13500
H540        H  0.00045860  0.83292690  0.45098225     0.14100
O541        O  0.17860136  0.95850793  0.97238365    -0.73500
O542        O  0.21780944  0.71384871  0.53302370    -0.73500
O543        O  0.17867533  0.96446266  0.53129679    -0.73600
O544        O  0.21863739  0.70842357  0.96946084    -0.73600
O545        O  0.16210824  0.70925617  0.96803667    -0.73600
O546        O  0.12113557  0.96342179  0.53326889    -0.73500
O547        O  0.15956010  0.71131651  0.53228016    -0.73500
O548        O  0.12211894  0.95957818  0.97258818    -0.73600
Ni549      Ni  0.20113414  0.67385679  0.50140953     1.25400
Ni550      Ni  0.13980588  0.99982288  0.00212050     1.25400
C551        C  0.14286360  0.94489198  0.96306393     0.88700
C552        C  0.19445948  0.72574036  0.54285233     0.88600
C553        C  0.14328719  0.94960438  0.54156778     0.88600
C554        C  0.19804683  0.72244556  0.95875589     0.88800
C555        C  0.05885850  0.85686767  0.92410599     0.04100
C556        C  0.08105800  0.88714360  0.94468419    -0.12100
C557        C  0.12277316  0.91073601  0.94214046     0.01600
C558        C  0.14283508  0.90224755  0.91925815    -0.10600
C559        C  0.12083359  0.87088744  0.89875733     0.04000
C560        C  0.07884518  0.84897715  0.90115720    -0.10000
H561        H  0.06537986  0.89288885  0.96260722     0.09600
H562        H  0.17492083  0.91981595  0.91737108     0.07200
H563        H  0.06149987  0.82491333  0.88552593     0.07000
C564        C  0.27937256  0.80162949  0.90926579     0.04100
C565        C  0.25928662  0.77363897  0.93228731    -0.12100
C566        C  0.21747322  0.75409854  0.93540407     0.01600
C567        C  0.19570005  0.76388830  0.91547067    -0.10900
C568        C  0.21573464  0.79244206  0.89247707     0.04000
C569        C  0.25733119  0.81023286  0.88924530    -0.10000
H570        H  0.27638227  0.76641471  0.94744200     0.09600
H571        H  0.16371964  0.74963076  0.91785823     0.07200
H572        H  0.27300694  0.83177003  0.87129657     0.07000
O573        O  0.04263603  0.82453900  0.69772236    -0.73500
O574        O  0.29487689  0.78518214  0.63741593    -0.73500
O575        O  0.04089822  0.82318091  0.63650625    -0.73600
O576        O  0.29705598  0.78461598  0.69848610    -0.73600
O577        O  0.29773258  0.84208026  0.69986653    -0.73600
O578        O  0.04309189  0.88137968  0.63593199    -0.73500
O579        O  0.29786710  0.84379212  0.63889856    -0.73500
O580        O  0.04277104  0.88175490  0.69714669    -0.73600
Ni581      Ni  0.00138266  0.80192595  0.66718841     1.25400
Ni582      Ni  0.00266988  0.86376607  0.66766450     1.25400
C583        C  0.05686197  0.86064535  0.70671081     0.88700
C584        C  0.28208363  0.80822599  0.62907791     0.88600
C585        C  0.05564283  0.85851883  0.62624167     0.88600
C586        C  0.28327577  0.80586300  0.70874941     0.88800
C587        C  0.19269016  0.80330711  0.59333115     0.04100
C588        C  0.18415127  0.77551394  0.57023983    -0.12100
C589        C  0.20654760  0.75654149  0.56655460     0.01600
C590        C  0.23855913  0.76640100  0.58603131    -0.10600
C591        C  0.24758693  0.79465743  0.60906707     0.04000
C592        C  0.22395326  0.81219008  0.61284869    -0.10000
H593        H  0.15943645  0.76819088  0.55539358     0.09600
H594        H  0.25630164  0.75245483  0.58323630     0.07200
H595        H  0.23036031  0.83360340  0.63085092     0.07000
C596        C  0.13691654  0.85955594  0.57832199     0.04100
C597        C  0.10766276  0.84998735  0.60057752    -0.12100
C598        C  0.08797215  0.87183529  0.60337264     0.01600
C599        C  0.09894941  0.90463554  0.58403272    -0.10600
C600        C  0.12884647  0.91478094  0.56189046     0.04000
C601        C  0.14677542  0.89141070  0.55888667    -0.10000
H602        H  0.09969071  0.82481297  0.61536213     0.09600
H603        H  0.08451671  0.92199858  0.58618638     0.07200
H604        H  0.16919292  0.89834394  0.54144479     0.07000
O605        O  0.21510164  0.84166531  0.80103263    -0.73500
O606        O  0.17575085  0.88143759  0.86567778    -0.73500
O607        O  0.21651143  0.84215418  0.86233834    -0.73600
O608        O  0.17709007  0.88337532  0.80419365    -0.73600
O609        O  0.11885587  0.82666450  0.80288482    -0.73600
O610        O  0.15926831  0.78428137  0.86367569    -0.73500
O611        O  0.11850514  0.82368350  0.86440335    -0.73500
O612        O  0.15674525  0.78505780  0.80245722    -0.73600
Ni613      Ni  0.19814089  0.86423984  0.83335182     1.25400
Ni614      Ni  0.13626239  0.80292393  0.83343000     1.25400
C615        C  0.19176396  0.80595940  0.79152192     0.88700
C616        C  0.13983362  0.85853962  0.87525748     0.88600
C617        C  0.19553425  0.80657884  0.87215081     0.88600
C618        C  0.14219366  0.86256069  0.79354198     0.88800
C619        C  0.19011148  0.72351825  0.74541032     0.04100
C620        C  0.22454052  0.74423990  0.72774752    -0.12100
C621        C  0.24855738  0.78607062  0.72949627     0.01600
C622        C  0.23831324  0.80718169  0.75014990    -0.10600
C623        C  0.20398328  0.78634857  0.76850982     0.04000
C624        C  0.17980231  0.74467306  0.76526935    -0.10000
H625        H  0.23180622  0.72763583  0.71177773     0.09600
H626        H  0.25680154  0.83922527  0.75194863     0.07200
H627        H  0.15311819  0.72796836  0.77899843     0.07000
C628        C  0.14758870  0.94376326  0.74365684     0.04100
C629        C  0.15443874  0.92361888  0.76676735    -0.12100
C630        C  0.13064167  0.88187845  0.77013147     0.01600
C631        C  0.09865386  0.86026164  0.75024399    -0.10600
C632        C  0.09121277  0.88049883  0.72717360     0.04000
C633        C  0.11642161  0.92195479  0.72377802    -0.10000
H634        H  0.17921125  0.94062634  0.78178715     0.09600
H635        H  0.07984003  0.82830959  0.75269488     0.07200
H636        H  0.11132776  0.93769272  0.70576176     0.07000
C637        C  0.16411644  0.67967592  0.74332552    -0.15500
C638        C  0.17279019  0.98758006  0.73959886    -0.30700
H639        H  0.13212953  0.66708839  0.74478242     0.13500
H640        H  0.17660067  0.99966836  0.71678818     0.14100
C641        C  0.15701090  0.83618167  0.57422127    -0.15500
C642        C  0.16918685  0.82324978  0.59772314    -0.30700
H643        H  0.16521583  0.83268459  0.55124548     0.13500
H644        H  0.16490376  0.83061717  0.62074457     0.14100
C645        C  0.32332160  0.82184708  0.90528426    -0.15500
C646        C  0.01487122  0.83331883  0.92784772    -0.30700
H647        H  0.33548824  0.82981385  0.88237860     0.13500
H648        H  0.00281668  0.82930440  0.95077545     0.14100
O649        O  0.51244728  0.29815092  0.46965234    -0.73500
O650        O  0.55274791  0.04343959  0.03338633    -0.73500
O651        O  0.51527187  0.29627575  0.03269663    -0.73600
O652        O  0.55268568  0.04485369  0.47107847    -0.73600
O653        O  0.49584778  0.04514459  0.47045497    -0.73600
O654        O  0.45753229  0.29489683  0.03319558    -0.73500
O655        O  0.49513129  0.04217253  0.03166320    -0.73500
O656        O  0.45565232  0.29858846  0.47137006    -0.73600
Ni657      Ni  0.53537935  0.00178482  0.00288751     1.25400
Ni658      Ni  0.47419706  0.33882863  0.50107897     1.25400
C659        C  0.47623704  0.28393414  0.46133559     0.88700
C660        C  0.53018843  0.05690476  0.04198376     0.88600
C661        C  0.47974508  0.28164135  0.04259365     0.88600
C662        C  0.53150642  0.05831308  0.46054067     0.88800
C663        C  0.39133598  0.19355708  0.42521798     0.04100
C664        C  0.41393337  0.22517237  0.44466981    -0.12100
C665        C  0.45553880  0.24888668  0.44127303     0.01600
C666        C  0.47509307  0.23908377  0.41882168    -0.10600
C667        C  0.45269474  0.20639852  0.39947913     0.04000
C668        C  0.41079271  0.18442258  0.40262147    -0.10000
H669        H  0.39863942  0.23180686  0.46234914     0.09600
H670        H  0.50711820  0.25667948  0.41637045     0.07200
H671        H  0.39307267  0.15942166  0.38783495     0.07000
C672        C  0.61117440  0.13679276  0.40968869     0.04100
C673        C  0.59179029  0.10939444  0.43316962    -0.12100
C674        C  0.55000877  0.08939026  0.43668550     0.01600
C675        C  0.52751115  0.09828156  0.41675275    -0.10900
C676        C  0.54686882  0.12633359  0.39331083     0.04000
C677        C  0.58845269  0.14434881  0.38960400    -0.10000
H678        H  0.60943021  0.10297850  0.44838629     0.09600
H679        H  0.49555915  0.08381194  0.41952719     0.07200
H680        H  0.60363893  0.16544475  0.37130425     0.07000
O681        O  0.37365665  0.16014491  0.19931028    -0.73500
O682        O  0.62732043  0.12048382  0.13751059    -0.73500
O683        O  0.37357765  0.15793428  0.13796188    -0.73600
O684        O  0.62579700  0.11924578  0.19889863    -0.73600
O685        O  0.62690146  0.17694423  0.19940708    -0.73600
O686        O  0.37703408  0.21665390  0.13612878    -0.73500
O687        O  0.63114586  0.17941928  0.13826321    -0.73500
O688        O  0.37481322  0.21781610  0.19758716    -0.73600
Ni689      Ni  0.33339286  0.13763933  0.16791009     1.25400
Ni690      Ni  0.33581769  0.19998558  0.16732988     1.25400
C691        C  0.38799118  0.19639072  0.20809909     0.88700
C692        C  0.61629706  0.14436951  0.12758498     0.88600
C693        C  0.38873898  0.19288175  0.12690636     0.88600
C694        C  0.61175261  0.14059549  0.20825811     0.88800
C695        C  0.53917136  0.14834444  0.07941042     0.04100
C696        C  0.52652033  0.11494311  0.06091888    -0.12100
C697        C  0.54396768  0.09095109  0.06299714     0.01600
C698        C  0.57345247  0.09993288  0.08483351    -0.10600
C699        C  0.58559845  0.13295547  0.10405131     0.04000
C700        C  0.56871093  0.15720639  0.10057068    -0.10000
H701        H  0.50397793  0.10851526  0.04412196     0.09600
H702        H  0.58667021  0.08146968  0.08684915     0.07200
H703        H  0.57790088  0.18301970  0.11491718     0.07000
C704        C  0.46741826  0.18868043  0.07930990     0.04100
C705        C  0.43679900  0.17954985  0.10004527    -0.12100
C706        C  0.42044149  0.20433142  0.10367156     0.01600
C707        C  0.43415125  0.23808259  0.08491971    -0.10600
C708        C  0.46474462  0.24733789  0.06354381     0.04000
C709        C  0.48160639  0.22281297  0.06135809    -0.10000
H710        H  0.42640687  0.15316860  0.11399682     0.09600
H711        H  0.42128743  0.25689620  0.08693686     0.07200
H712        H  0.50491270  0.22940086  0.04482000     0.07000
O713        O  0.54507483  0.17470076  0.30178716    -0.73500
O714        O  0.50714063  0.21559921  0.36646995    -0.73500
O715        O  0.54723413  0.17566685  0.36309714    -0.73600
O716        O  0.50791265  0.21681196  0.30509666    -0.73600
O717        O  0.44937067  0.16045000  0.30408021    -0.73600
O718        O  0.48980840  0.11803019  0.36502650    -0.73500
O719        O  0.44956157  0.15815501  0.36569940    -0.73500
O720        O  0.48659810  0.11824891  0.30375320    -0.73600
Ni721      Ni  0.52886250  0.19771076  0.33417619     1.25400
Ni722      Ni  0.46671545  0.13668733  0.33476190     1.25400
C723        C  0.52129951  0.13913319  0.29225824     0.88700
C724        C  0.47123474  0.19316748  0.37622072     0.88600
C725        C  0.52625891  0.14023252  0.37315417     0.88600
C726        C  0.47297953  0.19620828  0.29452983     0.88800
C727        C  0.51646941  0.05818614  0.24227052     0.04100
C728        C  0.55097040  0.07912558  0.22471806    -0.12100
C729        C  0.57611630  0.12066526  0.22799987     0.01600
C730        C  0.56687109  0.14116654  0.24990755    -0.10600
C731        C  0.53249879  0.12003524  0.26815274     0.04000
C732        C  0.50721400  0.07876988  0.26350190    -0.10000
H733        H  0.55769565  0.06295295  0.20792978     0.09600
H734        H  0.58633780  0.17291584  0.25291425     0.07200
H735        H  0.48051507  0.06187511  0.27717720     0.07000
C736        C  0.47900732  0.27856671  0.24594821     0.04100
C737        C  0.48653601  0.25753496  0.26769300    -0.12100
C738        C  0.46179852  0.21592968  0.27119144     0.01600
C739        C  0.42927960  0.19503859  0.25164460    -0.10600
C740        C  0.42152972  0.21604286  0.22937822     0.04000
C741        C  0.44635466  0.25780455  0.22703972    -0.10000
H742        H  0.51189861  0.27422653  0.28231045     0.09600
H743        H  0.41039507  0.16304044  0.25366362     0.07200
H744        H  0.44106303  0.27425022  0.20976207     0.07000
C745        C  0.48986051  0.01454805  0.23929500    -0.15500
C746        C  0.50638231  0.32221912  0.24315242    -0.30700
H747        H  0.45793608  0.00255363  0.23978856     0.13500
H748        H  0.53791759  0.33391783  0.24663806     0.14100
C749        C  0.48362371  0.16159905  0.07669809    -0.15500
C750        C  0.52286555  0.17527216  0.07676188    -0.30700
H751        H  0.46298187  0.12972438  0.07842340     0.13500
H752        H  0.54341837  0.20712686  0.07862925     0.14100
C753        C  0.65510732  0.15751579  0.40533663    -0.15500
C754        C  0.34745651  0.17007689  0.42955904    -0.30700
H755        H  0.66689613  0.16491474  0.38229898     0.13500
H756        H  0.33582434  0.16619619  0.45261463     0.14100
O757        O  0.51431704  0.29306114  0.97151267    -0.73500
O758        O  0.55214305  0.04543121  0.53267148    -0.73500
O759        O  0.51476975  0.30011093  0.53067581    -0.73600
O760        O  0.55416203  0.04075539  0.97201015    -0.73600
O761        O  0.49760108  0.04148196  0.97024357    -0.73600
O762        O  0.45669114  0.29795419  0.53245124    -0.73500
O763        O  0.49460326  0.04433619  0.53204172    -0.73500
O764        O  0.45734125  0.29318619  0.97210949    -0.73600
Ni765      Ni  0.53434031  0.00490779  0.50121735     1.25400
Ni766      Ni  0.47544624  0.33446962  0.00095285     1.25400
C767        C  0.47826846  0.27864030  0.96266030     0.88700
C768        C  0.52956084  0.05832326  0.54243308     0.88600
C769        C  0.47931142  0.28472572  0.54091177     0.88600
C770        C  0.53340226  0.05431059  0.96081856     0.88800
C771        C  0.39450559  0.18791252  0.92589637     0.04100
C772        C  0.41669673  0.21906452  0.94586751    -0.12100
C773        C  0.45818037  0.24369207  0.94240708     0.01600
C774        C  0.47805914  0.23540629  0.91924008    -0.10600
C775        C  0.45612105  0.20329884  0.89926551     0.04000
C776        C  0.41430562  0.18026448  0.90259894    -0.10000
H777        H  0.40117764  0.22473561  0.96396495     0.09600
H778        H  0.51001122  0.25380899  0.91668371     0.07200
H779        H  0.39699104  0.15561314  0.88741796     0.07000
C780        C  0.61447306  0.13229448  0.91050620     0.04100
C781        C  0.59433633  0.10392478  0.93324763    -0.12100
C782        C  0.55267977  0.08535957  0.93700936     0.01600
C783        C  0.53110620  0.09624293  0.91777309    -0.10900
C784        C  0.55129598  0.12516940  0.89503693     0.04000
C785        C  0.59269743  0.14217179  0.89130206    -0.10000
H786        H  0.61132062  0.09586975  0.94780577     0.09600
H787        H  0.49924353  0.08270190  0.92058132     0.07200
H788        H  0.60843626  0.16399996  0.87353516     0.07000
O789        O  0.38179454  0.15827809  0.69735466    -0.73500
O790        O  0.62972386  0.11639438  0.63800067    -0.73500
O791        O  0.37858122  0.15726649  0.63600602    -0.73600
O792        O  0.63386230  0.11561678  0.69930146    -0.73600
O793        O  0.63419964  0.17281741  0.70184993    -0.73600
O794        O  0.38014986  0.21514731  0.63627217    -0.73500
O795        O  0.63192261  0.17453378  0.64066574    -0.73500
O796        O  0.38151298  0.21526067  0.69757062    -0.73600
Ni797      Ni  0.33976828  0.13547520  0.66720992     1.25400
Ni798      Ni  0.34054326  0.19698935  0.66880030     1.25400
C799        C  0.39588420  0.19425669  0.70674991     0.88700
C800        C  0.61652398  0.13930829  0.63015718     0.88600
C801        C  0.39287939  0.19266146  0.62599010     0.88600
C802        C  0.62081785  0.13683011  0.71093578     0.88800
C803        C  0.52970228  0.13767648  0.59214742     0.04100
C804        C  0.52138402  0.11018759  0.56881553    -0.12100
C805        C  0.54248478  0.08971837  0.56591292     0.01600
C806        C  0.57348628  0.09828207  0.58622832    -0.10600
C807        C  0.58249483  0.12638851  0.60948611     0.04000
C808        C  0.55971006  0.14498266  0.61255847    -0.10000
H809        H  0.49754656  0.10394481  0.55333580     0.09600
H810        H  0.59036425  0.08335505  0.58396482     0.07200
H811        H  0.56586879  0.16610557  0.63073494     0.07000
C812        C  0.47449169  0.19505957  0.57737739     0.04100
C813        C  0.44521457  0.18506820  0.59972933    -0.12100
C814        C  0.42506217  0.20647369  0.60282450     0.01600
C815        C  0.43555328  0.23929388  0.58358460    -0.10600
C816        C  0.46539564  0.24988873  0.56126900     0.04000
C817        C  0.48382689  0.22694753  0.55806551    -0.10000
H818        H  0.43758117  0.15988033  0.61439794     0.09600
H819        H  0.42078400  0.25631487  0.58594172     0.07200
H820        H  0.50619313  0.23421687  0.54051894     0.07000
O821        O  0.55551923  0.17608572  0.80504210    -0.73500
O822        O  0.51155298  0.21475558  0.86666230    -0.73500
O823        O  0.55269504  0.17600173  0.86599634    -0.73600
O824        O  0.51625954  0.21673837  0.80502618    -0.73600
O825        O  0.45841461  0.15977934  0.80236086    -0.73600
O826        O  0.49576712  0.11776726  0.86561884    -0.73500
O827        O  0.45458140  0.15686158  0.86410193    -0.73500
O828        O  0.49738216  0.11906664  0.80460386    -0.73600
Ni829      Ni  0.53593534  0.19803849  0.83572520     1.25400
Ni830      Ni  0.47439000  0.13639807  0.83416099     1.25400
C831        C  0.53346050  0.14011196  0.79573238     0.88700
C832        C  0.47540823  0.19152118  0.87553061     0.88600
C833        C  0.53153934  0.14006551  0.87505827     0.88600
C834        C  0.48207572  0.19564214  0.79317660     0.88800
C835        C  0.54091361  0.05635088  0.76056113     0.04100
C836        C  0.57000805  0.07603497  0.73811164    -0.12100
C837        C  0.58941526  0.11785736  0.73465060     0.01600
C838        C  0.57842466  0.13988787  0.75372744    -0.10600
C839        C  0.54872279  0.12002945  0.77608628     0.04000
C840        C  0.53111957  0.07857341  0.77967801    -0.10000
H841        H  0.57778238  0.05855558  0.72352676     0.09600
H842        H  0.59238448  0.17183123  0.75101301     0.07200
H843        H  0.50870922  0.06307239  0.79719136     0.07000
C844        C  0.48765705  0.27687994  0.74351722     0.04100
C845        C  0.49596496  0.25625673  0.76506840    -0.12100
C846        C  0.47139913  0.21475532  0.76893942     0.01600
C847        C  0.43863689  0.19347364  0.74956756    -0.10600
C848        C  0.43032434  0.21410043  0.72729481     0.04000
C849        C  0.45480562  0.25586386  0.72484636    -0.10000
H850        H  0.52143913  0.27327050  0.77951834     0.09600
H851        H  0.41968718  0.16153418  0.75198711     0.07200
H852        H  0.44886661  0.27219185  0.70787844     0.07000
C853        C  0.52007072  0.01252506  0.76471630    -0.15500
C854        C  0.51390929  0.32059579  0.74109572    -0.30700
H855        H  0.51140837  0.00088405  0.78766917     0.13500
H856        H  0.54583897  0.33279520  0.74183982     0.14100
C857        C  0.49498202  0.17195413  0.57302042    -0.15500
C858        C  0.50670902  0.15830121  0.59639684    -0.30700
H859        H  0.50343071  0.16887018  0.55002466     0.13500
H860        H  0.50204201  0.16518280  0.61946534     0.14100
C861        C  0.65826855  0.15200646  0.90618642    -0.15500
C862        C  0.35065709  0.16363833  0.93027363    -0.30700
H863        H  0.67032917  0.16123944  0.88335632     0.13500
H864        H  0.33901041  0.15920829  0.95335821     0.14100
O865        O  0.51013182  0.63392168  0.46517255    -0.73500
O866        O  0.55406431  0.37715184  0.03203834    -0.73500
O867        O  0.51386028  0.62854204  0.03225805    -0.73600
O868        O  0.55339322  0.37903319  0.46973229    -0.73600
O869        O  0.49656065  0.37929179  0.46928538    -0.73600
O870        O  0.45590279  0.62668219  0.03296357    -0.73500
O871        O  0.49645362  0.37584122  0.02994339    -0.73500
O872        O  0.45334073  0.63411572  0.46811849    -0.73600
Ni873      Ni  0.53688798  0.33526048  0.00176655     1.25400
Ni874      Ni  0.47116069  0.67170415  0.49957392     1.25400
C875        C  0.47441525  0.62121747  0.45608025     0.88700
C876        C  0.53143792  0.39062280  0.04044415     0.88600
C877        C  0.47831424  0.61359056  0.04224554     0.88600
C878        C  0.53215399  0.39243973  0.45920343     0.88800
C879        C  0.39245848  0.54330199  0.40762875     0.04100
C880        C  0.41373040  0.57404851  0.42807418    -0.12100
C881        C  0.45500812  0.59053536  0.43214213     0.01600
C882        C  0.47552124  0.57696622  0.41383250    -0.10600
C883        C  0.45440437  0.54630949  0.39260831     0.04000
C884        C  0.41283082  0.52933824  0.39013277    -0.10000
H885        H  0.39727505  0.58413402  0.44168473     0.09600
H886        H  0.50725771  0.58967211  0.41628490     0.07200
H887        H  0.39625753  0.50587991  0.37384525     0.07000
C888        C  0.61235745  0.47097163  0.40871567     0.04100
C889        C  0.59250555  0.44290525  0.43167420    -0.12100
C890        C  0.55080700  0.42368937  0.43537307     0.01600
C891        C  0.52881678  0.43379043  0.41582340    -0.10900
C892        C  0.54869026  0.46247900  0.39276233     0.04000
C893        C  0.59023165  0.48004330  0.38919729    -0.10000
H894        H  0.60979237  0.43544247  0.44641052     0.09600
H895        H  0.49689215  0.41969408  0.41853890     0.07200
H896        H  0.60582402  0.50161706  0.37125759     0.07000
O897        O  0.37420408  0.49359303  0.19897543    -0.73500
O898        O  0.62953891  0.45396580  0.13541455    -0.73500
O899        O  0.37209579  0.48880707  0.13764601    -0.73600
O900        O  0.62810162  0.45201817  0.19695798    -0.73600
O901        O  0.62939503  0.50977320  0.19816421    -0.73600
O902        O  0.37424085  0.54683665  0.13470015    -0.73500
O903        O  0.63285796  0.51263852  0.13690171    -0.73500
O904        O  0.37441979  0.55072595  0.19612523    -0.73600
Ni905      Ni  0.33287220  0.46913771  0.16855736     1.25400
Ni906      Ni  0.33405992  0.53085627  0.16666879     1.25400
C907        C  0.38829540  0.53006586  0.20702749     0.88700
C908        C  0.61811174  0.47775604  0.12593741     0.88600
C909        C  0.38651842  0.52336072  0.12591619     0.88600
C910        C  0.61433632  0.47338450  0.20692958     0.88800
C911        C  0.53956167  0.48126672  0.07895517     0.04100
C912        C  0.52702954  0.44806473  0.06019998    -0.12100
C913        C  0.54502092  0.42449832  0.06166127     0.01600
C914        C  0.57488448  0.43361431  0.08319230    -0.10600
C915        C  0.58701837  0.46639563  0.10265354     0.04000
C916        C  0.56964958  0.49032981  0.09972401    -0.10000
H917        H  0.50415577  0.44147524  0.04366904     0.09600
H918        H  0.58844148  0.41541759  0.08478319     0.07200
H919        H  0.57887047  0.51599994  0.11423955     0.07000
C920        C  0.46661354  0.52061611  0.07884612     0.04100
C921        C  0.43519827  0.51065365  0.09905303    -0.12100
C922        C  0.41835424  0.53503155  0.10262813     0.01600
C923        C  0.43227759  0.56912591  0.08417064    -0.10600
C924        C  0.46347105  0.57912353  0.06315985     0.04000
C925        C  0.48090836  0.55507331  0.06120305    -0.10000
H926        H  0.42465406  0.48402598  0.11273063     0.09600
H927        H  0.41911638  0.58767605  0.08615092     0.07200
H928        H  0.50471570  0.56223426  0.04501317     0.07000
O929        O  0.54844981  0.50945707  0.30041056    -0.73500
O930        O  0.51001018  0.55253080  0.36299931    -0.73500
O931        O  0.54973261  0.51189142  0.36187407    -0.73600
O932        O  0.51135903  0.55187128  0.30177716    -0.73600
O933        O  0.45247668  0.49582002  0.30171847    -0.73600
O934        O  0.49221161  0.45436123  0.36387216    -0.73500
O935        O  0.45237427  0.49501754  0.36317490    -0.73500
O936        O  0.48966145  0.45337833  0.30247375    -0.73600
Ni937      Ni  0.53195710  0.53342494  0.33184538     1.25400
Ni938      Ni  0.46960942  0.47260017  0.33294688     1.25400
C939        C  0.52457429  0.47379076  0.29115451     0.88700
C940        C  0.47386796  0.53073668  0.37241951     0.88600
C941        C  0.52852281  0.47658673  0.37224430     0.88600
C942        C  0.47611077  0.53131825  0.29170490     0.88800
C943        C  0.52013179  0.39141008  0.24316360     0.04100
C944        C  0.55445301  0.41187281  0.22527149    -0.12100
C945        C  0.57928730  0.45363812  0.22748571     0.01600
C946        C  0.57004176  0.47471966  0.24894630    -0.10600
C947        C  0.53594835  0.45404394  0.26761899     0.04000
C948        C  0.51091252  0.41261694  0.26382777    -0.10000
H949        H  0.56106014  0.39518892  0.20888734     0.09600
H950        H  0.58919040  0.50663426  0.25117561     0.07200
H951        H  0.48433130  0.39611140  0.27770114     0.07000
C952        C  0.47892050  0.61346131  0.24474379     0.04100
C953        C  0.48794421  0.59257867  0.26561809    -0.12100
C954        C  0.46415926  0.55086187  0.26875842     0.01600
C955        C  0.43122613  0.52970797  0.24963549    -0.10600
C956        C  0.42208490  0.55047096  0.22809102     0.04000
C957        C  0.44583614  0.59238643  0.22622462    -0.10000
H958        H  0.51357839  0.60944029  0.27995246     0.09600
H959        H  0.41307007  0.49761293  0.25141577     0.07200
H960        H  0.43944464  0.60871772  0.20957772     0.07000
C961        C  0.49307705  0.34775907  0.24070748    -0.15500
C962        C  0.50538057  0.65728675  0.24228263    -0.30700
H963        H  0.46124778  0.33631015  0.24081491     0.13500
H964        H  0.53717131  0.66952898  0.24471659     0.14100
C965        C  0.48338985  0.49393290  0.07630145    -0.15500
C966        C  0.52272582  0.50789395  0.07686282    -0.30700
H967        H  0.46294001  0.46197882  0.07743575     0.13500
H968        H  0.54297132  0.53973805  0.07925294     0.14100
C969        C  0.65621250  0.49083106  0.40438997    -0.15500
C970        C  0.34880714  0.52623582  0.40525772    -0.30700
H971        H  0.66827633  0.49946128  0.38150522     0.13500
H972        H  0.33732815  0.54636984  0.40707606     0.14100
O973        O  0.51262960  0.62549463  0.97102131    -0.73500
O974        O  0.55367489  0.38074266  0.53135130    -0.73500
O975        O  0.51086483  0.63054109  0.52653105    -0.73600
O976        O  0.55545431  0.37398220  0.97059799    -0.73600
O977        O  0.49841260  0.37373952  0.96849953    -0.73600
O978        O  0.45304904  0.62882012  0.52933509    -0.73500
O979        O  0.49583962  0.37904332  0.53099229    -0.73500
O980        O  0.45554513  0.62537911  0.97179309    -0.73600
Ni981      Ni  0.53567394  0.33970379  0.50030804     1.25400
Ni982      Ni  0.47348478  0.66649447  0.00085955     1.25400
C983        C  0.47656682  0.61097851  0.96220110     0.88700
C984        C  0.53093034  0.39334944  0.54124941     0.88600
C985        C  0.47556245  0.61513753  0.53705955     0.88600
C986        C  0.53426615  0.38684879  0.95907322     0.88800
C987        C  0.39294899  0.52056542  0.92496258     0.04100
C988        C  0.41500246  0.55179239  0.94488987    -0.12100
C989        C  0.45659168  0.57605350  0.94185069     0.01600
C990        C  0.47670812  0.56723022  0.91916196    -0.10600
C991        C  0.45488139  0.53493349  0.89929744     0.04000
C992        C  0.41296439  0.51237404  0.90220325    -0.10000
H993        H  0.39928491  0.55777094  0.96263645     0.09600
H994        H  0.50871641  0.58532829  0.91689129     0.07200
H995        H  0.39566598  0.48766223  0.88706887     0.07000
C996        C  0.61401097  0.46434471  0.90746143     0.04100
C997        C  0.59463801  0.43661674  0.93077532    -0.12100
C998        C  0.55293067  0.41734035  0.93478324     0.01600
C999        C  0.53058962  0.42708197  0.91537360    -0.10900
C1000       C  0.54998049  0.45540305  0.89212375     0.04000
C1001       C  0.59140504  0.47282820  0.88799046    -0.10000
H1002       H  0.61225600  0.42968294  0.94559820     0.09600
H1003       H  0.49874666  0.41325934  0.91853596     0.07200
H1004       H  0.60658128  0.49423972  0.86987047     0.07000
O1005       O  0.38051516  0.49214698  0.69652687    -0.73500
O1006       O  0.63079052  0.45190766  0.63737526    -0.73500
O1007       O  0.37854731  0.49107599  0.63502541    -0.73600
O1008       O  0.63280639  0.45080138  0.69867479    -0.73600
O1009       O  0.63329773  0.50815304  0.70045707    -0.73600
O1010       O  0.38047221  0.54913750  0.63460252    -0.73500
O1011       O  0.63351735  0.51032912  0.63936226    -0.73500
O1012       O  0.38093769  0.54948129  0.69604543    -0.73600
Ni1013     Ni  0.33917037  0.46972392  0.66591541     1.25400
Ni1014     Ni  0.34053899  0.53156717  0.66681540     1.25400
C1015       C  0.39460431  0.52812759  0.70586733     0.88700
C1016       C  0.61802019  0.47501160  0.62899844     0.88600
C1017       C  0.39286521  0.52627415  0.62456306     0.88600
C1018       C  0.61893447  0.47187549  0.70913159     0.88800
C1019       C  0.53087768  0.47274352  0.59071862     0.04100
C1020       C  0.52246041  0.44492264  0.56765088    -0.12100
C1021       C  0.54383951  0.42478691  0.56472118     0.01600
C1022       C  0.57505675  0.43373369  0.58496715    -0.10600
C1023       C  0.58412272  0.46207907  0.60808532     0.04000
C1024       C  0.56121367  0.48059141  0.61100080    -0.10000
H1025       H  0.49835354  0.43820536  0.55232389     0.09600
H1026       H  0.59202259  0.41889291  0.58277594     0.07200
H1027       H  0.56740715  0.50192416  0.62901811     0.07000
C1028       C  0.47318065  0.52745414  0.57504656     0.04100
C1029       C  0.44487414  0.51831052  0.59807566    -0.12100
C1030       C  0.42433153  0.53933833  0.60089274     0.01600
C1031       C  0.43339286  0.57088064  0.58067106    -0.10600
C1032       C  0.46213219  0.58054815  0.55760684     0.04000
C1033       C  0.48094698  0.55794197  0.55468023    -0.10000
H1034       H  0.43829884  0.49410889  0.61352552     0.09600
H1035       H  0.41844570  0.58774243  0.58291939     0.07200
H1036       H  0.50266910  0.56466707  0.53670530     0.07000
O1037       O  0.55037007  0.50630830  0.80204893    -0.73500
O1038       O  0.51008778  0.54548310  0.86647119    -0.73500
O1039       O  0.55063860  0.50595352  0.86330157    -0.73600
O1040       O  0.51251368  0.54800194  0.80490713    -0.73600
O1041       O  0.45421231  0.49147131  0.80283048    -0.73600
O1042       O  0.49336130  0.44809608  0.86393632    -0.73500
O1043       O  0.45274509  0.48791442  0.86456746    -0.73500
O1044       O  0.49192077  0.44977785  0.80277319    -0.73600
Ni1045     Ni  0.53289709  0.52851034  0.83427281     1.25400
Ni1046     Ni  0.47093812  0.46732624  0.83361314     1.25400
C1047       C  0.52713307  0.47077326  0.79219394     0.88700
C1048       C  0.47402051  0.52262416  0.87575392     0.88600
C1049       C  0.52959929  0.47012765  0.87256551     0.88600
C1050       C  0.47794961  0.52735940  0.79364789     0.88800
C1051       C  0.52568014  0.38903519  0.74527493     0.04100
C1052       C  0.56011173  0.41002578  0.72764598    -0.12100
C1053       C  0.58420585  0.45180927  0.72983051     0.01600
C1054       C  0.57398064  0.47261612  0.75080391    -0.10600
C1055       C  0.53963343  0.45150386  0.76910390     0.04000
C1056       C  0.51550164  0.40988946  0.76554860    -0.10000
H1057       H  0.56730985  0.39372363  0.71133230     0.09600
H1058       H  0.59244732  0.50463505  0.75284970     0.07200
H1059       H  0.48883783  0.39299787  0.77926301     0.07000
C1060       C  0.48406430  0.60995713  0.74541119     0.04100
C1061       C  0.49150342  0.58882960  0.76710062    -0.12100
C1062       C  0.46725441  0.54712104  0.76996276     0.01600
C1063       C  0.43552180  0.52626746  0.74965915    -0.10600
C1064       C  0.42804046  0.54746305  0.72732512     0.04000
C1065       C  0.45233266  0.58930021  0.72571181    -0.10000
H1066       H  0.51619787  0.60553144  0.78230027     0.09600
H1067       H  0.41688246  0.49420627  0.75128785     0.07200
H1068       H  0.44714063  0.60600773  0.70859507     0.07000
C1069       C  0.49942523  0.34524891  0.74276444    -0.15500
C1070       C  0.51028693  0.65374285  0.74361447    -0.30700
H1071       H  0.46757183  0.33272656  0.74561201     0.13500
H1072       H  0.54212891  0.66610748  0.74577087     0.14100
C1073       C  0.49438100  0.50499011  0.57114971    -0.15500
C1074       C  0.50758419  0.49311046  0.59473288    -0.30700
H1075       H  0.50205743  0.50090863  0.54816146     0.13500
H1076       H  0.50363006  0.50102165  0.61765554     0.14100
C1077       C  0.65788424  0.48501888  0.90288760    -0.15500
C1078       C  0.34901244  0.49663077  0.92891669    -0.30700
H1079       H  0.66949526  0.49248369  0.87980568     0.13500
H1080       H  0.33701607  0.49256362  0.95186800     0.14100
O1081       O  0.51126508  0.96403772  0.47006546    -0.73500
O1082       O  0.55237276  0.70964715  0.03156550    -0.73500
O1083       O  0.51359658  0.96256136  0.03353841    -0.73600
O1084       O  0.55142392  0.71427121  0.46970474    -0.73600
O1085       O  0.49443209  0.71426543  0.46946356    -0.73600
O1086       O  0.45584633  0.96116518  0.03389029    -0.73500
O1087       O  0.49448302  0.70780952  0.02998808    -0.73500
O1088       O  0.45454976  0.96463645  0.47198620    -0.73600
Ni1089     Ni  0.53510696  0.66766653  0.00130180     1.25400
Ni1090     Ni  0.47305480  0.00445729  0.50194110     1.25400
C1091       C  0.47515501  0.95017906  0.46163951     0.88700
C1092       C  0.52970961  0.72301505  0.04012628     0.88600
C1093       C  0.47795163  0.94770831  0.04316006     0.88600
C1094       C  0.53029077  0.72803612  0.45973850     0.88800
C1095       C  0.39044173  0.86111494  0.42436873     0.04100
C1096       C  0.41299717  0.89205106  0.44431605    -0.12100
C1097       C  0.45457043  0.91580749  0.44101946     0.01600
C1098       C  0.47415510  0.90679050  0.41808962    -0.10600
C1099       C  0.45177612  0.87477015  0.39820738     0.04000
C1100       C  0.40987000  0.85270638  0.40128911    -0.10000
H1101       H  0.39769244  0.89811496  0.46235046     0.09600
H1102       H  0.50618727  0.92441469  0.41573643     0.07200
H1103       H  0.39216728  0.82815478  0.38612863     0.07000
C1104       C  0.61034034  0.80649138  0.40928718     0.04100
C1105       C  0.59083022  0.77952682  0.43298605    -0.12100
C1106       C  0.54904329  0.75974226  0.43643653     0.01600
C1107       C  0.52673458  0.76859838  0.41635201    -0.10900
C1108       C  0.54628267  0.79631195  0.39277466     0.04000
C1109       C  0.58780700  0.81404827  0.38906286    -0.10000
H1110       H  0.60832704  0.77300700  0.44827450     0.09600
H1111       H  0.49476555  0.75416517  0.41897721     0.07200
H1112       H  0.60306911  0.83482164  0.37059079     0.07000
O1113       O  0.37276045  0.82582627  0.19806590    -0.73500
O1114       O  0.62735218  0.78772947  0.13565334    -0.73500
O1115       O  0.37078702  0.82223298  0.13686857    -0.73600
O1116       O  0.62520079  0.78662950  0.19722207    -0.73600
O1117       O  0.62641228  0.84435484  0.19768883    -0.73600
O1118       O  0.37331950  0.88051138  0.13496374    -0.73500
O1119       O  0.63070833  0.84642899  0.13635543    -0.73500
O1120       O  0.37295787  0.88301557  0.19622128    -0.73600
Ni1121     Ni  0.33150249  0.80210374  0.16738706     1.25400
Ni1122     Ni  0.33292685  0.86393714  0.16689642     1.25400
C1123       C  0.38688028  0.86219138  0.20653413     0.88700
C1124       C  0.61610238  0.81141778  0.12562442     0.88600
C1125       C  0.38554566  0.85709983  0.12581851     0.88600
C1126       C  0.61135392  0.80809916  0.20677386     0.88800
C1127       C  0.53836823  0.81461499  0.07739699     0.04100
C1128       C  0.52585782  0.78117274  0.05892315    -0.12100
C1129       C  0.54356031  0.75737940  0.06097227     0.01600
C1130       C  0.57326383  0.76671503  0.08275697    -0.10600
C1131       C  0.58534200  0.79979532  0.10196166     0.04000
C1132       C  0.56814450  0.82379200  0.09845863    -0.10000
H1133       H  0.50312023  0.77447495  0.04223845     0.09600
H1134       H  0.58663824  0.74840104  0.08479922     0.07200
H1135       H  0.57722259  0.84961734  0.11276879     0.07000
C1136       C  0.46574686  0.85430804  0.07906349     0.04100
C1137       C  0.43451588  0.84456739  0.09938873    -0.12100
C1138       C  0.41765490  0.86897312  0.10288860     0.01600
C1139       C  0.43161705  0.90307211  0.08457424    -0.10600
C1140       C  0.46274707  0.91296428  0.06363058     0.04000
C1141       C  0.47996438  0.88872796  0.06141717    -0.10000
H1142       H  0.42400249  0.81798607  0.11311940     0.09600
H1143       H  0.41853745  0.92169287  0.08660752     0.07200
H1144       H  0.50361032  0.89582038  0.04508852     0.07000
O1145       O  0.54528077  0.84398804  0.30076762    -0.73500
O1146       O  0.50632337  0.88462043  0.36505043    -0.73500
O1147       O  0.54684323  0.84526378  0.36211677    -0.73600
O1148       O  0.50752361  0.88569184  0.30361357    -0.73600
O1149       O  0.44926008  0.82898649  0.30253182    -0.73600
O1150       O  0.48952097  0.78748929  0.36406581    -0.73500
O1151       O  0.44889214  0.82702304  0.36409434    -0.73500
O1152       O  0.48700216  0.78734285  0.30278883    -0.73600
Ni1153     Ni  0.52851737  0.86694750  0.33293497     1.25400
Ni1154     Ni  0.46656877  0.80568779  0.33346827     1.25400
C1155       C  0.52179349  0.80823423  0.29142656     0.88700
C1156       C  0.47041265  0.86198038  0.37473309     0.88600
C1157       C  0.52585192  0.80991886  0.37232097     0.88600
C1158       C  0.47269249  0.86473156  0.29294187     0.88800
C1159       C  0.51779554  0.72603662  0.24346200     0.04100
C1160       C  0.55167482  0.74672102  0.22518994    -0.12100
C1161       C  0.57629249  0.78851072  0.22729258     0.01600
C1162       C  0.56711449  0.80955487  0.24884878    -0.10600
C1163       C  0.53333754  0.78871007  0.26780898     0.04000
C1164       C  0.50866718  0.74713898  0.26428491    -0.10000
H1165       H  0.55822324  0.73012360  0.20868082     0.09600
H1166       H  0.58609287  0.84150517  0.25097403     0.07200
H1167       H  0.48242337  0.73043477  0.27846284     0.07000
C1168       C  0.47737198  0.94587192  0.24376188     0.04100
C1169       C  0.48539486  0.92547955  0.26572914    -0.12100
C1170       C  0.46128039  0.88387142  0.26939087     0.01600
C1171       C  0.42893743  0.86230629  0.24986939    -0.10600
C1172       C  0.42074670  0.88262779  0.22737221     0.04000
C1173       C  0.44495597  0.92444747  0.22476136    -0.10000
H1174       H  0.51056920  0.94264513  0.28041780     0.09600
H1175       H  0.41043240  0.83029699  0.25214760     0.07200
H1176       H  0.43923666  0.94043618  0.20735860     0.07000
C1177       C  0.49122667  0.68224547  0.24124736    -0.15500
C1178       C  0.50394125  0.98958322  0.24096445    -0.30700
H1179       H  0.45930943  0.67018529  0.24238662     0.13500
H1180       H  0.53562159  0.00180122  0.24412738     0.14100
C1181       C  0.48234444  0.82743797  0.07646725    -0.15500
C1182       C  0.52163420  0.84125249  0.07485982    -0.30700
H1183       H  0.46208971  0.79563130  0.07930926     0.13500
H1184       H  0.54220726  0.87319021  0.07555401     0.14100
C1185       C  0.65417520  0.82663724  0.40480019    -0.15500
C1186       C  0.34665501  0.83759266  0.42881225    -0.30700
H1187       H  0.66591646  0.83382831  0.38173747     0.13500
H1188       H  0.33521112  0.83342539  0.45194849     0.14100
O1189       O  0.51262987  0.95988603  0.97239155    -0.73500
O1190       O  0.54960663  0.71112388  0.53114686    -0.73500
O1191       O  0.51281946  0.96465425  0.53111604    -0.73600
O1192       O  0.55319011  0.70642912  0.97016955    -0.73600
O1193       O  0.49607445  0.70608409  0.96857114    -0.73600
O1194       O  0.45510551  0.96326583  0.53301111    -0.73500
O1195       O  0.49184903  0.70956896  0.53092608    -0.73500
O1196       O  0.45612688  0.96091185  0.97282581    -0.73600
Ni1197     Ni  0.53258667  0.67253716  0.49814068     1.25400
Ni1198     Ni  0.47417909  0.00149011  0.00218903     1.25400
C1199       C  0.47674589  0.94604654  0.96333843     0.88700
C1200       C  0.52665904  0.72332942  0.54145756     0.88600
C1201       C  0.47734670  0.94951867  0.54127472     0.88600
C1202       C  0.53193335  0.71947317  0.95904696     0.88800
C1203       C  0.39233677  0.85723683  0.92527376     0.04100
C1204       C  0.41468182  0.88799933  0.94546981    -0.12100
C1205       C  0.45640694  0.91140788  0.94281094     0.01600
C1206       C  0.47630164  0.90211574  0.92028419    -0.10600
C1207       C  0.45414631  0.87018588  0.90022791     0.04000
C1208       C  0.41216319  0.84857297  0.90267607    -0.10000
H1209       H  0.39910229  0.89428924  0.96313668     0.09600
H1210       H  0.50838485  0.91953241  0.91830813     0.07200
H1211       H  0.39466031  0.82418770  0.88733216     0.07000
C1212       C  0.61213694  0.79880446  0.90888578     0.04100
C1213       C  0.59249700  0.77054935  0.93180709    -0.12100
C1214       C  0.55069287  0.75067722  0.93524761     0.01600
C1215       C  0.52849281  0.76052165  0.91575397    -0.10900
C1216       C  0.54814306  0.78940736  0.89286822     0.04000
C1217       C  0.58970201  0.80731766  0.88924643    -0.10000
H1218       H  0.60999925  0.76356426  0.94671569     0.09600
H1219       H  0.49655499  0.74625093  0.91851655     0.07200
H1220       H  0.60510445  0.82906767  0.87137669     0.07000
O1221       O  0.37775764  0.82463014  0.69801088    -0.73500
O1222       O  0.62652868  0.78269344  0.63769782    -0.73500
O1223       O  0.37557370  0.82320744  0.63668392    -0.73600
O1224       O  0.62882775  0.78316917  0.69891052    -0.73600
O1225       O  0.62893309  0.84035600  0.69983874    -0.73600
O1226       O  0.37834173  0.88167717  0.63617859    -0.73500
O1227       O  0.62872471  0.84091963  0.63877533    -0.73500
O1228       O  0.37844724  0.88212567  0.69745721    -0.73600
Ni1229     Ni  0.33630303  0.80235116  0.66763265     1.25400
Ni1230     Ni  0.33824731  0.86451549  0.66814795     1.25400
C1231       C  0.39215670  0.86071822  0.70709038     0.88700
C1232       C  0.61337908  0.80531474  0.62904825     0.88600
C1233       C  0.39041100  0.85850496  0.62628429     0.88600
C1234       C  0.61483374  0.80432064  0.70901825     0.88800
C1235       C  0.52489690  0.80082870  0.59215300     0.04100
C1236       C  0.51685888  0.77346341  0.56882990    -0.12100
C1237       C  0.53888834  0.75398131  0.56546970     0.01600
C1238       C  0.57040405  0.76335416  0.58544702    -0.10600
C1239       C  0.57902245  0.79138228  0.60871266     0.04000
C1240       C  0.55537293  0.80893209  0.61223008    -0.10000
H1241       H  0.49271125  0.76682172  0.55356105     0.09600
H1242       H  0.58806935  0.74930803  0.58282818     0.07200
H1243       H  0.56133663  0.83001378  0.63041074     0.07000
C1244       C  0.47049962  0.85866839  0.57722981     0.04100
C1245       C  0.44142880  0.84917386  0.59966188    -0.12100
C1246       C  0.42224057  0.87144055  0.60297659     0.01600
C1247       C  0.43329302  0.90440788  0.58379559    -0.10600
C1248       C  0.46288031  0.91444720  0.56139617     0.04000
C1249       C  0.48050218  0.89081094  0.55800570    -0.10000
H1250       H  0.43328373  0.82380986  0.61427216     0.09600
H1251       H  0.41920248  0.92205091  0.58631077     0.07200
H1252       H  0.50278163  0.89777672  0.54044102     0.07000
O1253       O  0.54750255  0.83991364  0.80227945    -0.73500
O1254       O  0.50892665  0.87988950  0.86734691    -0.73500
O1255       O  0.54890313  0.83976267  0.86357896    -0.73600
O1256       O  0.51014071  0.88225901  0.80593180    -0.73600
O1257       O  0.45165424  0.82582839  0.80450007    -0.73600
O1258       O  0.49144565  0.78211640  0.86476910    -0.73500
O1259       O  0.45139074  0.82243732  0.86606229    -0.73500
O1260       O  0.48892387  0.78355449  0.80356691    -0.73600
Ni1261     Ni  0.53089384  0.86249986  0.83484848     1.25400
Ni1262     Ni  0.46874326  0.80149180  0.83481292     1.25400
C1263       C  0.52396449  0.80434579  0.79259820     0.88700
C1264       C  0.47295272  0.85729712  0.87690421     0.88600
C1265       C  0.52780922  0.80405739  0.87312604     0.88600
C1266       C  0.47521578  0.86174463  0.79527546     0.88800
C1267       C  0.52175617  0.72209078  0.74578231     0.04100
C1268       C  0.55605799  0.74281182  0.72799562    -0.12100
C1269       C  0.58022552  0.78459120  0.72989402     0.01600
C1270       C  0.57023735  0.80566576  0.75082451    -0.10600
C1271       C  0.53599931  0.78481002  0.76932373     0.04000
C1272       C  0.51169911  0.74317668  0.76593317    -0.10000
H1273       H  0.56311586  0.72625169  0.71181864     0.09600
H1274       H  0.58884776  0.83768400  0.75272784     0.07200
H1275       H  0.48510923  0.72645081  0.77975223     0.07000
C1276       C  0.48178248  0.94337135  0.74525117     0.04100
C1277       C  0.48772021  0.92316185  0.76884390    -0.12100
C1278       C  0.46399307  0.88133908  0.77185763     0.01600
C1279       C  0.43271878  0.85983195  0.75135976    -0.10600
C1280       C  0.42610391  0.88021573  0.72792269     0.04000
C1281       C  0.45147117  0.92164253  0.72472843    -0.10000
H1282       H  0.51185220  0.94012566  0.78440217     0.09600
H1283       H  0.41386215  0.82785596  0.75359754     0.07200
H1284       H  0.44706358  0.93746225  0.70638863     0.07000
C1285       C  0.49563751  0.67830127  0.74352209    -0.15500
C1286       C  0.50711404  0.98714612  0.74115745    -0.30700
H1287       H  0.46366301  0.66581594  0.74494188     0.13500
H1288       H  0.51199272  0.99898860  0.71818909     0.14100
C1289       C  0.49040474  0.83506588  0.57293045    -0.15500
C1290       C  0.50162728  0.82108171  0.59637806    -0.30700
H1291       H  0.49914310  0.83213511  0.54999078     0.13500
H1292       H  0.49679455  0.82785173  0.61943879     0.14100
C1293       C  0.65608066  0.81962580  0.90470441    -0.15500
C1294       C  0.34832824  0.83402819  0.92896197    -0.30700
H1295       H  0.66799569  0.82747588  0.88172560     0.13500
H1296       H  0.33620747  0.82988883  0.95187383     0.14100
O1297       O  0.84552717  0.29692905  0.47074178    -0.73500
O1298       O  0.88647203  0.04309941  0.03216883    -0.73500
O1299       O  0.84679059  0.29422549  0.03355951    -0.73600
O1300       O  0.88609258  0.04502681  0.47273715    -0.73600
O1301       O  0.82956188  0.04592230  0.47215714    -0.73600
O1302       O  0.78858693  0.29189103  0.03373592    -0.73500
O1303       O  0.82909133  0.04231609  0.03053192    -0.73500
O1304       O  0.78894249  0.29778702  0.47242205    -0.73600
Ni1305     Ni  0.86854261  0.00121083  0.00182356     1.25400
Ni1306     Ni  0.80745106  0.33750462  0.50236076     1.25400
C1307       C  0.80940837  0.28311055  0.46228064     0.88700
C1308       C  0.86420142  0.05688879  0.04076429     0.88600
C1309       C  0.81123885  0.27925722  0.04338093     0.88600
C1310       C  0.86515383  0.05879247  0.46225250     0.88800
C1311       C  0.72443776  0.19416897  0.42474547     0.04100
C1312       C  0.74690267  0.22541415  0.44454831    -0.12100
C1313       C  0.78865555  0.24860321  0.44181122     0.01600
C1314       C  0.80841158  0.23881291  0.41962095    -0.10600
C1315       C  0.78616712  0.20659857  0.39993932     0.04000
C1316       C  0.74418120  0.18504798  0.40238963    -0.10000
H1317       H  0.73142776  0.23204326  0.46207846     0.09600
H1318       H  0.84051486  0.25598543  0.41769431     0.07200
H1319       H  0.72666003  0.16031070  0.38733162     0.07000
C1320       C  0.94487085  0.13622844  0.41099033     0.04100
C1321       C  0.92544605  0.10908156  0.43458755    -0.12100
C1322       C  0.88377458  0.08974347  0.43837848     0.01600
C1323       C  0.86143578  0.09896851  0.41856957    -0.10900
C1324       C  0.88088497  0.12677513  0.39500970     0.04000
C1325       C  0.92234914  0.14425613  0.39108003    -0.10000
H1326       H  0.94294137  0.10228737  0.44965809     0.09600
H1327       H  0.82953631  0.08489593  0.42149051     0.07200
H1328       H  0.93757844  0.16519175  0.37269378     0.07000
O1329       O  0.70652234  0.15918836  0.20127021    -0.73500
O1330       O  0.96081147  0.12069235  0.13732693    -0.73500
O1331       O  0.70733710  0.15745257  0.14001300    -0.73600
O1332       O  0.95888377  0.11962192  0.19883199    -0.73600
O1333       O  0.95961750  0.17712102  0.19941682    -0.73600
O1334       O  0.71109817  0.21634095  0.13837811    -0.73500
O1335       O  0.96368977  0.17916419  0.13811037    -0.73500
O1336       O  0.70764084  0.21685136  0.19973757    -0.73600
Ni1337     Ni  0.66665800  0.13700473  0.16953701     1.25400
Ni1338     Ni  0.66930621  0.19947255  0.16903120     1.25400
C1339       C  0.72086333  0.19541438  0.21012802     0.88700
C1340       C  0.94946177  0.14425607  0.12725983     0.88600
C1341       C  0.72282054  0.19256457  0.12923601     0.88600
C1342       C  0.94478176  0.14083367  0.20838814     0.88800
C1343       C  0.87375706  0.14870664  0.07772810     0.04100
C1344       C  0.86138213  0.11551447  0.05913146    -0.12100
C1345       C  0.87833895  0.09115110  0.06165250     0.01600
C1346       C  0.90729131  0.09980055  0.08397178    -0.10600
C1347       C  0.91922453  0.13281083  0.10326434     0.04000
C1348       C  0.90261452  0.15724331  0.09936881    -0.10000
H1349       H  0.83917038  0.10935528  0.04209386     0.09600
H1350       H  0.92016086  0.08107375  0.08634303     0.07200
H1351       H  0.91143001  0.18295172  0.11375571     0.07000
C1352       C  0.80193306  0.18870172  0.08206943     0.04100
C1353       C  0.77205600  0.18016368  0.10339546    -0.12100
C1354       C  0.75472307  0.20414718  0.10625785     0.01600
C1355       C  0.76709417  0.23682590  0.08660970    -0.10600
C1356       C  0.79705972  0.24561340  0.06481969     0.04000
C1357       C  0.81457830  0.22165867  0.06301778    -0.10000
H1358       H  0.76267330  0.15466835  0.11817671     0.09600
H1359       H  0.75358044  0.25509282  0.08818607     0.07200
H1360       H  0.83718441  0.22780229  0.04595017     0.07000
O1361       O  0.87968580  0.17506693  0.30337113    -0.73500
O1362       O  0.84104791  0.21580235  0.36761898    -0.73500
O1363       O  0.88145092  0.17615803  0.36474455    -0.73600
O1364       O  0.84222832  0.21687917  0.30630742    -0.73600
O1365       O  0.78377240  0.16040211  0.30532721    -0.73600
O1366       O  0.82406238  0.11844956  0.36658704    -0.73500
O1367       O  0.78358211  0.15820838  0.36680994    -0.73500
O1368       O  0.82126123  0.11855719  0.30533683    -0.73600
Ni1369     Ni  0.86315422  0.19801905  0.33559259     1.25400
Ni1370     Ni  0.80108261  0.13687655  0.33613853     1.25400
C1371       C  0.85595766  0.13948347  0.29385386     0.88700
C1372       C  0.80505336  0.19330897  0.37716369     0.88600
C1373       C  0.86043626  0.14072966  0.37481624     0.88600
C1374       C  0.80732186  0.19611732  0.29571060     0.88800
C1375       C  0.85089163  0.05827602  0.24418608     0.04100
C1376       C  0.88481764  0.07917894  0.22601078    -0.12100
C1377       C  0.90966254  0.12087611  0.22872889     0.01600
C1378       C  0.90077914  0.14149047  0.25082025    -0.10600
C1379       C  0.86706773  0.12033765  0.26973457     0.04000
C1380       C  0.84203281  0.07895691  0.26557002    -0.10000
H1381       H  0.89124864  0.06286748  0.20915056     0.09600
H1382       H  0.91998702  0.17334309  0.25342553     0.07200
H1383       H  0.81576069  0.06205034  0.27968593     0.07000
C1384       C  0.81293670  0.27780444  0.24663127     0.04100
C1385       C  0.82090210  0.25702278  0.26827863    -0.12100
C1386       C  0.79599313  0.21554273  0.27227548     0.01600
C1387       C  0.76290673  0.19446541  0.25327119    -0.10600
C1388       C  0.75475645  0.21521720  0.23106930     0.04000
C1389       C  0.77974299  0.25691066  0.22826667    -0.10000
H1390       H  0.84668007  0.27384472  0.28248577     0.09600
H1391       H  0.74387999  0.16253122  0.25566919     0.07200
H1392       H  0.77415490  0.27318758  0.21103000     0.07000
C1393       C  0.82415629  0.01464580  0.24148385    -0.15500
C1394       C  0.84030809  0.32137518  0.24351297    -0.30700
H1395       H  0.79227542  0.00290373  0.24155010     0.13500
H1396       H  0.87189301  0.33303407  0.24668663     0.14100
C1397       C  0.81842240  0.16181933  0.07975352    -0.15500
C1398       C  0.85722397  0.17531020  0.07495007    -0.30700
H1399       H  0.79883297  0.13048226  0.08513078     0.13500
H1400       H  0.87792613  0.20713150  0.07300971     0.14100
C1401       C  0.98865180  0.15627897  0.40640748    -0.15500
C1402       C  0.68048088  0.17072144  0.42879286    -0.30700
H1403       H  0.00034688  0.16397997  0.38335888     0.13500
H1404       H  0.66866500  0.16709314  0.45176983     0.14100
O1405       O  0.84629139  0.29124800  0.97242639    -0.73500
O1406       O  0.88538972  0.04514786  0.53430822    -0.73500
O1407       O  0.84746364  0.29814817  0.53172933    -0.73600
O1408       O  0.88743928  0.03993501  0.97082027    -0.73600
O1409       O  0.83098347  0.04088895  0.96910099    -0.73600
O1410       O  0.78948651  0.29622182  0.53338235    -0.73500
O1411       O  0.82802752  0.04439897  0.53377348    -0.73500
O1412       O  0.78907396  0.29089251  0.97257024    -0.73600
Ni1413     Ni  0.86734558  0.00485713  0.50267191     1.25400
Ni1414     Ni  0.80628629  0.33173366  0.00161107     1.25400
C1415       C  0.81035289  0.27668205  0.96328804     0.88700
C1416       C  0.86295127  0.05811516  0.54421421     0.88600
C1417       C  0.81194419  0.28277296  0.54176914     0.88600
C1418       C  0.86671734  0.05349636  0.95960198     0.88800
C1419       C  0.72719782  0.18665774  0.92574617     0.04100
C1420       C  0.74917689  0.21733587  0.94606104    -0.12100
C1421       C  0.79067564  0.24191841  0.94290067     0.01600
C1422       C  0.81079658  0.23391289  0.91977217    -0.10600
C1423       C  0.78899625  0.20212457  0.89951692     0.04000
C1424       C  0.74714876  0.17921226  0.90249939    -0.10000
H1425       H  0.73344332  0.22277623  0.96412653     0.09600
H1426       H  0.84277383  0.25231064  0.91742229     0.07200
H1427       H  0.72989576  0.15487961  0.88704423     0.07000
C1428       C  0.94736335  0.13057940  0.90848651     0.04100
C1429       C  0.92749894  0.10256828  0.93151474    -0.12100
C1430       C  0.88589571  0.08424897  0.93563311     0.01600
C1431       C  0.86419327  0.09517743  0.91663438    -0.10900
C1432       C  0.88415170  0.12377874  0.89370059     0.04000
C1433       C  0.92539546  0.14032169  0.88940305    -0.10000
H1434       H  0.94467045  0.09470999  0.94604477     0.09600
H1435       H  0.83242012  0.08199763  0.91982142     0.07200
H1436       H  0.94090101  0.16192920  0.87145321     0.07000
O1437       O  0.71472948  0.15664738  0.69730422    -0.73500
O1438       O  0.96513449  0.11802567  0.63885581    -0.73500
O1439       O  0.71045345  0.15514270  0.63614412    -0.73600
O1440       O  0.96859499  0.11694923  0.70006237    -0.73600
O1441       O  0.96847645  0.17392485  0.70263841    -0.73600
O1442       O  0.71247890  0.21326493  0.63641475    -0.73500
O1443       O  0.96675580  0.17588308  0.64151294    -0.73500
O1444       O  0.71475877  0.21379349  0.69748815    -0.73600
Ni1445     Ni  0.67210480  0.13385057  0.66763939     1.25400
Ni1446     Ni  0.67334693  0.19561056  0.66914991     1.25400
C1447       C  0.72929778  0.19281285  0.70637623     0.88700
C1448       C  0.95157235  0.14063797  0.63105352     0.88600
C1449       C  0.72494484  0.19056900  0.62616239     0.88600
C1450       C  0.95506725  0.13783563  0.71149579     0.88800
C1451       C  0.86343420  0.13741783  0.59407648     0.04100
C1452       C  0.85468341  0.10952975  0.57103144    -0.12100
C1453       C  0.87607380  0.08944786  0.56779407     0.01600
C1454       C  0.90775260  0.09869446  0.58763363    -0.10600
C1455       C  0.91715062  0.12720459  0.61068441     0.04000
C1456       C  0.89409623  0.14548103  0.61401341    -0.10000
H1457       H  0.83035449  0.10281969  0.55594049     0.09600
H1458       H  0.92486813  0.08404755  0.58513753     0.07200
H1459       H  0.90052191  0.16692422  0.63199061     0.07000
C1460       C  0.80740322  0.19353607  0.57856148     0.04100
C1461       C  0.77776478  0.18328506  0.60060806    -0.12100
C1462       C  0.75722534  0.20432828  0.60322142     0.01600
C1463       C  0.76767065  0.23702264  0.58391453    -0.10600
C1464       C  0.79787452  0.24784652  0.56194409     0.04000
C1465       C  0.81668488  0.22523786  0.55909812    -0.10000
H1466       H  0.77021226  0.15824420  0.61542751     0.09600
H1467       H  0.75265048  0.25383037  0.58600804     0.07200
H1468       H  0.83936758  0.23268345  0.54178515     0.07000
O1469       O  0.88833630  0.17599114  0.80474314    -0.73500
O1470       O  0.84449432  0.21402955  0.86690038    -0.73500
O1471       O  0.88548427  0.17516581  0.86560583    -0.73600
O1472       O  0.84915400  0.21702172  0.80529358    -0.73600
O1473       O  0.79133767  0.15999541  0.80250829    -0.73600
O1474       O  0.82857797  0.11689393  0.86483850    -0.73500
O1475       O  0.78757243  0.15609976  0.86410938    -0.73500
O1476       O  0.83014059  0.11904198  0.80396943    -0.73600
Ni1477     Ni  0.86881627  0.19770500  0.83567901     1.25400
Ni1478     Ni  0.80726386  0.13605357  0.83382532     1.25400
C1479       C  0.86628205  0.14007694  0.79528351     0.88700
C1480       C  0.80837062  0.19064118  0.87571788     0.88600
C1481       C  0.86435368  0.13905286  0.87426638     0.88600
C1482       C  0.81483057  0.19604009  0.79362190     0.88800
C1483       C  0.87369935  0.05646121  0.75965137     0.04100
C1484       C  0.90323110  0.07644424  0.73753519    -0.12100
C1485       C  0.92302173  0.11838286  0.73464565     0.01600
C1486       C  0.91182667  0.14018237  0.75375355    -0.10600
C1487       C  0.88161292  0.12005738  0.77565613     0.04000
C1488       C  0.86373659  0.07850374  0.77885212    -0.10000
H1489       H  0.91113179  0.05914839  0.72284985     0.09600
H1490       H  0.92607293  0.17220170  0.75142454     0.07200
H1491       H  0.84102340  0.06280600  0.79612614     0.07000
C1492       C  0.81943891  0.27679675  0.74345841     0.04100
C1493       C  0.82672464  0.25696360  0.76658958    -0.12100
C1494       C  0.80370993  0.21512475  0.76968629     0.01600
C1495       C  0.77209487  0.19307703  0.74951723    -0.10600
C1496       C  0.76422919  0.21293613  0.72640902     0.04000
C1497       C  0.78882314  0.25452663  0.72321267    -0.10000
H1498       H  0.85099157  0.27431059  0.78195109     0.09600
H1499       H  0.75362035  0.16109028  0.75198080     0.07200
H1500       H  0.78336967  0.27006252  0.70524883     0.07000
C1501       C  0.85284591  0.01257587  0.76359886    -0.15500
C1502       C  0.84342329  0.32079384  0.73977789    -0.30700
H1503       H  0.84451708  0.00083670  0.78655276     0.13500
H1504       H  0.84778191  0.33290226  0.71693267     0.14100
C1505       C  0.82830117  0.17085916  0.57463472    -0.15500
C1506       C  0.84032577  0.15786865  0.59822724    -0.30700
H1507       H  0.83676373  0.16751132  0.55170887     0.13500
H1508       H  0.83570827  0.16504426  0.62121763     0.14100
C1509       C  0.99114289  0.15047094  0.90402858    -0.15500
C1510       C  0.68337167  0.16272486  0.92968963    -0.30700
H1511       H  0.00298667  0.15838916  0.88103289     0.13500
H1512       H  0.67149778  0.15747535  0.95273190     0.14100
O1513       O  0.84533018  0.62963477  0.46988073    -0.73500
O1514       O  0.88429332  0.37475626  0.03338198    -0.73500
O1515       O  0.84508614  0.62864707  0.03019743    -0.73600
O1516       O  0.88716368  0.37775443  0.47153514    -0.73600
O1517       O  0.83043783  0.37827352  0.47091663    -0.73600
O1518       O  0.78694813  0.62644557  0.03058091    -0.73500
O1519       O  0.82633593  0.37262291  0.03091077    -0.73500
O1520       O  0.78798279  0.62899413  0.47111784    -0.73600
Ni1521     Ni  0.86805052  0.33323730  0.00283862     1.25400
Ni1522     Ni  0.80535490  0.66900381  0.50084577     1.25400
C1523       C  0.80916017  0.61492596  0.46127851     0.88700
C1524       C  0.86095994  0.38728405  0.04205992     0.88600
C1525       C  0.80931019  0.61320817  0.03967306     0.88600
C1526       C  0.86610866  0.39133746  0.46103842     0.88800
C1527       C  0.72521511  0.52509908  0.42407543     0.04100
C1528       C  0.74742014  0.55628761  0.44391405    -0.12100
C1529       C  0.78906768  0.57999980  0.44105219     0.01600
C1530       C  0.80907055  0.57044551  0.41882756    -0.10600
C1531       C  0.78702890  0.53805304  0.39913463     0.04000
C1532       C  0.74504986  0.51617311  0.40167783    -0.10000
H1533       H  0.73173305  0.56266738  0.46143368     0.09600
H1534       H  0.84113685  0.58803239  0.41677999     0.07200
H1535       H  0.72757001  0.49147505  0.38657128     0.07000
C1536       C  0.94614122  0.46963502  0.41038021     0.04100
C1537       C  0.92665054  0.44234958  0.43390173    -0.12100
C1538       C  0.88483374  0.42242686  0.43727828     0.01600
C1539       C  0.86250229  0.43131431  0.41722501    -0.10900
C1540       C  0.88205896  0.45926979  0.39380081     0.04000
C1541       C  0.92359093  0.47720876  0.39020262    -0.10000
H1542       H  0.94420530  0.43594993  0.44922381     0.09600
H1543       H  0.83053556  0.41689259  0.41986855     0.07200
H1544       H  0.93887058  0.49823802  0.37187705     0.07000
O1545       O  0.70900163  0.49223043  0.19919407    -0.73500
O1546       O  0.96028826  0.44928108  0.13759097    -0.73500
O1547       O  0.70992019  0.49102717  0.13777555    -0.73600
O1548       O  0.96269352  0.45087779  0.19878339    -0.73600
O1549       O  0.96281217  0.50807675  0.19886124    -0.73600
O1550       O  0.71292755  0.54957450  0.13642155    -0.73500
O1551       O  0.96224720  0.50740242  0.13781130    -0.73500
O1552       O  0.71009513  0.54986713  0.19783251    -0.73600
Ni1553     Ni  0.66905290  0.47020186  0.16741210     1.25400
Ni1554     Ni  0.67142965  0.53251448  0.16741174     1.25400
C1555       C  0.72328991  0.52841261  0.20820631     0.88700
C1556       C  0.94694780  0.47161923  0.12857353     0.88600
C1557       C  0.72499526  0.52614232  0.12704166     0.88600
C1558       C  0.94865229  0.47217175  0.20844605     0.88800
C1559       C  0.85788470  0.46565263  0.09122635     0.04100
C1560       C  0.85011936  0.43790112  0.06814765    -0.12100
C1561       C  0.87260987  0.41878900  0.06529413     0.01600
C1562       C  0.90411313  0.42882866  0.08541893    -0.10600
C1563       C  0.91252000  0.45720227  0.10826206     0.04000
C1564       C  0.88861506  0.47451979  0.11131950    -0.10000
H1565       H  0.82582873  0.43051957  0.05283178     0.09600
H1566       H  0.92198189  0.41494202  0.08324862     0.07200
H1567       H  0.89446742  0.49589034  0.12924954     0.07000
C1568       C  0.80266366  0.52310265  0.07673835     0.04100
C1569       C  0.77504277  0.51525256  0.10012372    -0.12100
C1570       C  0.75641542  0.53812683  0.10345745     0.01600
C1571       C  0.76669417  0.57008564  0.08340675    -0.10600
C1572       C  0.79486165  0.57854608  0.06016085     0.04000
C1573       C  0.81180929  0.55431288  0.05671489    -0.10000
H1574       H  0.76736649  0.49056848  0.11535796     0.09600
H1575       H  0.75309141  0.58818450  0.08589377     0.07200
H1576       H  0.83305938  0.56025228  0.03851587     0.07000
O1577       O  0.88166595  0.50791816  0.30222283    -0.73500
O1578       O  0.84199705  0.54786398  0.36651278    -0.73500
O1579       O  0.88265319  0.50860136  0.36359264    -0.73600
O1580       O  0.84366390  0.54938964  0.30510249    -0.73600
O1581       O  0.78530508  0.49281561  0.30386255    -0.73600
O1582       O  0.82546010  0.45067308  0.36500137    -0.73500
O1583       O  0.78471215  0.49012994  0.36542137    -0.73500
O1584       O  0.82329204  0.45136670  0.30370984    -0.73600
Ni1585     Ni  0.86451643  0.53049032  0.33442686     1.25400
Ni1586     Ni  0.80260340  0.46921158  0.33458605     1.25400
C1587       C  0.85821561  0.47232961  0.29256548     0.88700
C1588       C  0.80603442  0.52513249  0.37605402     0.88600
C1589       C  0.86168750  0.47308680  0.37348156     0.88600
C1590       C  0.80879307  0.52862856  0.29443546     0.88800
C1591       C  0.85413023  0.39051630  0.24412097     0.04100
C1592       C  0.88875008  0.41094788  0.22661390    -0.12100
C1593       C  0.91377407  0.45261837  0.22913672     0.01600
C1594       C  0.90439105  0.47371219  0.25053916    -0.10600
C1595       C  0.86995238  0.45299941  0.26888620     0.04000
C1596       C  0.84479135  0.41162959  0.26474286    -0.10000
H1597       H  0.89539893  0.39432736  0.21019629     0.09600
H1598       H  0.92363280  0.50558892  0.25294322     0.07200
H1599       H  0.81796714  0.39500390  0.27833745     0.07000
C1600       C  0.81336482  0.61092740  0.24686915     0.04100
C1601       C  0.82145564  0.58993705  0.26822141    -0.12100
C1602       C  0.79736838  0.54822630  0.27123593     0.01600
C1603       C  0.76503050  0.52716381  0.25153975    -0.10600
C1604       C  0.75679342  0.54813022  0.22957562     0.04000
C1605       C  0.78096955  0.59005059  0.22776097    -0.10000
H1606       H  0.84663123  0.60674143  0.28298960     0.09600
H1607       H  0.74662363  0.49508709  0.25325701     0.07200
H1608       H  0.77533571  0.60662977  0.21081992     0.07000
C1609       C  0.82699451  0.34693052  0.24145469    -0.15500
C1610       C  0.83987910  0.65471166  0.24465821    -0.30700
H1611       H  0.79516749  0.33550960  0.24190187     0.13500
H1612       H  0.87173116  0.66677163  0.24624679     0.14100
C1613       C  0.82208795  0.49894840  0.07224651    -0.15500
C1614       C  0.83405787  0.48541025  0.09553010    -0.30700
H1615       H  0.83018019  0.49553028  0.04921415     0.13500
H1616       H  0.82979756  0.49261364  0.11860586     0.14100
C1617       C  0.98999664  0.49035069  0.40599625    -0.15500
C1618       C  0.68132416  0.50187533  0.42792660    -0.30700
H1619       H  0.00168636  0.49786090  0.38293647     0.13500
H1620       H  0.66944487  0.49720751  0.45094775     0.14100
O1621       O  0.84596238  0.62848391  0.96906167    -0.73500
O1622       O  0.88657849  0.37877240  0.53304981    -0.73500
O1623       O  0.84661531  0.63132147  0.53090446    -0.73600
O1624       O  0.88631191  0.37184374  0.97185310    -0.73600
O1625       O  0.82925109  0.37142196  0.96930730    -0.73600
O1626       O  0.78804954  0.62819831  0.53217193    -0.73500
O1627       O  0.82882760  0.37724842  0.53248279    -0.73500
O1628       O  0.78870962  0.62803606  0.96942024    -0.73600
Ni1629     Ni  0.86879467  0.33806236  0.50173769     1.25400
Ni1630     Ni  0.80554433  0.66769635  0.99948288     1.25400
C1631       C  0.81008325  0.61409449  0.95978005     0.88700
C1632       C  0.86381561  0.39144005  0.54283303     0.88600
C1633       C  0.81102484  0.61552886  0.54089147     0.88600
C1634       C  0.86519517  0.38458655  0.96005704     0.88800
C1635       C  0.72723104  0.52351336  0.92202803     0.04100
C1636       C  0.74888549  0.55506745  0.94180010    -0.12100
C1637       C  0.79049187  0.57953387  0.93906616     0.01600
C1638       C  0.81100063  0.57076672  0.91674088    -0.10600
C1639       C  0.78958376  0.53828223  0.89694921     0.04000
C1640       C  0.74765625  0.51541935  0.89953925    -0.10000
H1641       H  0.73284858  0.56088194  0.95937861     0.09600
H1642       H  0.84304675  0.58889463  0.91482539     0.07200
H1643       H  0.73076118  0.49042361  0.88454343     0.07000
C1644       C  0.94708845  0.46236469  0.91042742     0.04100
C1645       C  0.92587328  0.43186877  0.93128580    -0.12100
C1646       C  0.88462128  0.41538036  0.93599520     0.01600
C1647       C  0.86405844  0.42871320  0.91791394    -0.10900
C1648       C  0.88517427  0.45916508  0.89628449     0.04000
C1649       C  0.92673159  0.47613445  0.89318631    -0.10000
H1650       H  0.94233544  0.42189467  0.94463613     0.09600
H1651       H  0.83228677  0.41589039  0.92076252     0.07200
H1652       H  0.94327982  0.49932408  0.87651338     0.07000
O1653       O  0.71372159  0.49129542  0.69848668    -0.73500
O1654       O  0.96475824  0.45141782  0.63781475    -0.73500
O1655       O  0.71163141  0.49012496  0.63713857    -0.73600
O1656       O  0.96840711  0.45076889  0.69898457    -0.73600
O1657       O  0.96777094  0.50747851  0.70149791    -0.73600
O1658       O  0.71409461  0.54845414  0.63692086    -0.73500
O1659       O  0.96598071  0.50909917  0.64027081    -0.73500
O1660       O  0.71410497  0.54859723  0.69826302    -0.73600
Ni1661     Ni  0.67219723  0.46895603  0.66791646     1.25400
Ni1662     Ni  0.67387052  0.53094231  0.66881687     1.25400
C1663       C  0.72811981  0.52737298  0.70773360     0.88700
C1664       C  0.95105706  0.47386595  0.62989288     0.88600
C1665       C  0.72637139  0.52548383  0.62693569     0.88600
C1666       C  0.95486606  0.47153412  0.71055038     0.88800
C1667       C  0.86312145  0.47035592  0.59248368     0.04100
C1668       C  0.85486866  0.44272567  0.56929615    -0.12100
C1669       C  0.87652012  0.42283510  0.56625714     0.01600
C1670       C  0.90790479  0.43204512  0.58633013    -0.10600
C1671       C  0.91682093  0.46032483  0.60941672     0.04000
C1672       C  0.89357779  0.47839508  0.61260806    -0.10000
H1673       H  0.83070033  0.43596829  0.55401870     0.09600
H1674       H  0.92516215  0.41752541  0.58399346     0.07200
H1675       H  0.89968055  0.49965426  0.63067258     0.07000
C1676       C  0.80686547  0.52654492  0.57779903     0.04100
C1677       C  0.77816297  0.51709366  0.60055635    -0.12100
C1678       C  0.75821949  0.53868159  0.60365554     0.01600
C1679       C  0.76824897  0.57101484  0.58406276    -0.10600
C1680       C  0.79743173  0.58098178  0.56137144     0.04000
C1681       C  0.81573726  0.55796679  0.55812388    -0.10000
H1682       H  0.77078308  0.49222187  0.61551222     0.09600
H1683       H  0.75360990  0.58816219  0.58643131     0.07200
H1684       H  0.83769531  0.56489155  0.54029935     0.07000
O1685       O  0.89032893  0.50899675  0.80552744    -0.73500
O1686       O  0.84579743  0.54881971  0.86570504    -0.73500
O1687       O  0.88708605  0.51001401  0.86656156    -0.73600
O1688       O  0.85102129  0.54961515  0.80416814    -0.73600
O1689       O  0.79323264  0.49257061  0.80175474    -0.73600
O1690       O  0.83014146  0.45181018  0.86629611    -0.73500
O1691       O  0.78891083  0.49082118  0.86334278    -0.73500
O1692       O  0.83230599  0.45183515  0.80528312    -0.73600
Ni1693     Ni  0.87052011  0.53148723  0.83553288     1.25400
Ni1694     Ni  0.80904010  0.46977717  0.83416093     1.25400
C1695       C  0.86837389  0.47290786  0.79641993     0.88700
C1696       C  0.80947659  0.52581232  0.87426683     0.88600
C1697       C  0.86579195  0.47422207  0.87595483     0.88600
C1698       C  0.81673558  0.52841847  0.79245442     0.88800
C1699       C  0.87600278  0.38980878  0.75990716     0.04100
C1700       C  0.90450134  0.41008893  0.73718835    -0.12100
C1701       C  0.92359355  0.45196063  0.73422013     0.01600
C1702       C  0.91282051  0.47346272  0.75396634    -0.10600
C1703       C  0.88367401  0.45309842  0.77656403     0.04000
C1704       C  0.86642672  0.41159189  0.77977109    -0.10000
H1705       H  0.91220515  0.39304370  0.72205255     0.09600
H1706       H  0.92652284  0.50542624  0.75157880     0.07200
H1707       H  0.84441869  0.39576856  0.79746935     0.07000
C1708       C  0.81988678  0.61005104  0.74464085     0.04100
C1709       C  0.82938102  0.58924129  0.76518243    -0.12100
C1710       C  0.80542460  0.54758540  0.76861131     0.01600
C1711       C  0.77213159  0.52636094  0.74965345    -0.10600
C1712       C  0.76270095  0.54715718  0.72827353     0.04000
C1713       C  0.78659799  0.58903667  0.72638400    -0.10000
H1714       H  0.85518485  0.60622012  0.77932893     0.09600
H1715       H  0.75364349  0.49433139  0.75172015     0.07200
H1716       H  0.77994234  0.60553095  0.71007236     0.07000
C1717       C  0.85584173  0.34587426  0.76358679    -0.15500
C1718       C  0.84547572  0.65393785  0.74262462    -0.30700
H1719       H  0.84763337  0.33379321  0.78645533     0.13500
H1720       H  0.87749590  0.66669860  0.74325084     0.14100
C1721       C  0.82736488  0.50349929  0.57344366    -0.15500
C1722       C  0.83972894  0.49050871  0.59681536    -0.30700
H1723       H  0.83546885  0.50010040  0.55041139     0.13500
H1724       H  0.83542013  0.49774693  0.61986953     0.14100
C1725       C  0.99066029  0.47925990  0.90727934    -0.15500
C1726       C  0.68336854  0.49882593  0.92623862    -0.30700
H1727       H  0.00210637  0.45916366  0.90945203     0.13500
H1728       H  0.67157448  0.49510811  0.94923452     0.14100
O1729       O  0.84420532  0.96425363  0.47127642    -0.73500
O1730       O  0.88306682  0.70926312  0.03232926    -0.73500
O1731       O  0.84656767  0.96227936  0.03259447    -0.73600
O1732       O  0.88514446  0.71054395  0.47030624    -0.73600
O1733       O  0.82768328  0.70955627  0.46924188    -0.73600
O1734       O  0.78901589  0.96130523  0.03320626    -0.73500
O1735       O  0.82524292  0.70736631  0.02980572    -0.73500
O1736       O  0.78780333  0.96543616  0.47301148    -0.73600
Ni1737     Ni  0.86728669  0.66915806  0.00059094     1.25400
Ni1738     Ni  0.80632721  0.00492615  0.50332315     1.25400
C1739       C  0.80824946  0.95080319  0.46260273     0.88700
C1740       C  0.85957802  0.72142342  0.04140406     0.88600
C1741       C  0.81101359  0.94771817  0.04238137     0.88600
C1742       C  0.86356089  0.72340897  0.45958379     0.88800
C1743       C  0.72345886  0.86274927  0.42416386     0.04100
C1744       C  0.74592089  0.89373879  0.44412221    -0.12100
C1745       C  0.78765270  0.91669150  0.44161114     0.01600
C1746       C  0.80740307  0.90684174  0.41932025    -0.10600
C1747       C  0.78508389  0.87477575  0.39938807     0.04000
C1748       C  0.74309910  0.85354964  0.40175560    -0.10000
H1749       H  0.73041603  0.90029776  0.46167804     0.09600
H1750       H  0.83951941  0.92378338  0.41754579     0.07200
H1751       H  0.72548306  0.82896861  0.38659821     0.07000
C1752       C  0.94300776  0.80260916  0.40907480     0.04100
C1753       C  0.92371125  0.77460867  0.43217433    -0.12100
C1754       C  0.88195776  0.75475221  0.43592563     0.01600
C1755       C  0.85947647  0.76441797  0.41661950    -0.10900
C1756       C  0.87885455  0.79312475  0.39359774     0.04000
C1757       C  0.92034288  0.81096166  0.38961441    -0.10000
H1758       H  0.94144425  0.76774428  0.44692627     0.09600
H1759       H  0.82755983  0.75009175  0.41957375     0.07200
H1760       H  0.93552560  0.83252454  0.37158618     0.07000
O1761       O  0.70596815  0.82674332  0.20005309    -0.73500
O1762       O  0.95645725  0.78084001  0.14000815    -0.73500
O1763       O  0.70765764  0.82481138  0.13877278    -0.73600
O1764       O  0.95991922  0.78417728  0.20121936    -0.73600
O1765       O  0.95943692  0.84105201  0.20044740    -0.73600
O1766       O  0.71085559  0.88341981  0.13674036    -0.73500
O1767       O  0.95832522  0.83890932  0.13930947    -0.73500
O1768       O  0.70709912  0.88437728  0.19803769    -0.73600
Ni1769     Ni  0.66643149  0.80437598  0.16803042     1.25400
Ni1770     Ni  0.66885504  0.86670221  0.16724525     1.25400
C1771       C  0.72021409  0.86302365  0.20877867     0.88700
C1772       C  0.94315065  0.80295627  0.13043724     0.88600
C1773       C  0.72307092  0.85988808  0.12792965     0.88600
C1774       C  0.94566216  0.80540078  0.21052283     0.88800
C1775       C  0.85417162  0.79651331  0.09302872     0.04100
C1776       C  0.84752669  0.77021545  0.06907634    -0.12100
C1777       C  0.87052211  0.75171565  0.06565380     0.01600
C1778       C  0.90162191  0.76118447  0.08614822    -0.10600
C1779       C  0.90883680  0.78818205  0.10994342     0.04000
C1780       C  0.88422394  0.80458164  0.11352025    -0.10000
H1781       H  0.82370629  0.76352635  0.05345523     0.09600
H1782       H  0.92010271  0.74803528  0.08350260     0.07200
H1783       H  0.88925247  0.82494740  0.13206159     0.07000
C1784       C  0.80147509  0.85624134  0.07901403     0.04100
C1785       C  0.77298377  0.84813337  0.10172765    -0.12100
C1786       C  0.75514915  0.87176363  0.10497413     0.01600
C1787       C  0.76698688  0.90454760  0.08548787    -0.10600
C1788       C  0.79602747  0.91318608  0.06296352     0.04000
C1789       C  0.81236201  0.88843566  0.05966756    -0.10000
H1790       H  0.76403730  0.82270878  0.11645424     0.09600
H1791       H  0.75380017  0.92304579  0.08777500     0.07200
H1792       H  0.83419894  0.89444939  0.04192539     0.07000
O1793       O  0.87824055  0.84195940  0.30290439    -0.73500
O1794       O  0.83970798  0.88349022  0.36678201    -0.73500
O1795       O  0.87944302  0.84313954  0.36415362    -0.73600
O1796       O  0.84107298  0.88432096  0.30534844    -0.73600
O1797       O  0.78232848  0.82814473  0.30452462    -0.73600
O1798       O  0.82200298  0.78546945  0.36561240    -0.73500
O1799       O  0.78212006  0.82604546  0.36610272    -0.73500
O1800       O  0.81948168  0.78579981  0.30440520    -0.73600
Ni1801     Ni  0.86163882  0.86526534  0.33485535     1.25400
Ni1802     Ni  0.79936263  0.80436382  0.33527296     1.25400
C1803       C  0.85457303  0.80632041  0.29345257     0.88700
C1804       C  0.80374850  0.86118560  0.37646324     0.88600
C1805       C  0.85836700  0.80754589  0.37389844     0.88600
C1806       C  0.80606513  0.86377371  0.29485803     0.88800
C1807       C  0.85219054  0.72349881  0.24730107     0.04100
C1808       C  0.88673533  0.74405500  0.22969601    -0.12100
C1809       C  0.91096030  0.78590250  0.23137158     0.01600
C1810       C  0.90089668  0.80716968  0.25201159    -0.10600
C1811       C  0.86655593  0.78649355  0.27043022     0.04000
C1812       C  0.84212251  0.74485639  0.26717331    -0.10000
H1813       H  0.89386759  0.72735313  0.21372277     0.09600
H1814       H  0.91954189  0.83920185  0.25376628     0.07200
H1815       H  0.81538802  0.72834954  0.28088312     0.07000
C1816       C  0.81098002  0.94576210  0.24658982     0.04100
C1817       C  0.81907267  0.92491812  0.26810971    -0.12100
C1818       C  0.79469116  0.88330626  0.27156256     0.01600
C1819       C  0.76201878  0.86216392  0.25218266    -0.10600
C1820       C  0.75374077  0.88294348  0.23009407     0.04000
C1821       C  0.77820324  0.92477209  0.22782150    -0.10000
H1822       H  0.84450687  0.94174071  0.28264170     0.09600
H1823       H  0.74342436  0.83013487  0.25419243     0.07200
H1824       H  0.77256710  0.94111796  0.21067807     0.07000
C1825       C  0.82568141  0.67966594  0.24509166    -0.15500
C1826       C  0.83789950  0.98947278  0.24389568    -0.30700
H1827       H  0.79378788  0.66745402  0.24705596     0.13500
H1828       H  0.86948698  0.00153187  0.24744193     0.14100
C1829       C  0.82002333  0.83137063  0.07436616    -0.15500
C1830       C  0.83028126  0.81610868  0.09751658    -0.30700
H1831       H  0.82924788  0.82907421  0.05143635     0.13500
H1832       H  0.82500118  0.82213366  0.12067834     0.14100
C1833       C  0.98684005  0.82339226  0.40457277    -0.15500
C1834       C  0.67955007  0.83963050  0.42821467    -0.30700
H1835       H  0.99847396  0.83099395  0.38150546     0.13500
H1836       H  0.66779185  0.83621892  0.45119595     0.14100
O1837       O  0.84541570  0.95919041  0.97147814    -0.73500
O1838       O  0.88411202  0.71186506  0.53179634    -0.73500
O1839       O  0.84531816  0.96443559  0.53238959    -0.73600
O1840       O  0.88648024  0.70935403  0.97066549    -0.73600
O1841       O  0.82920456  0.70858636  0.96818875    -0.73600
O1842       O  0.78774919  0.96336487  0.53405290    -0.73500
O1843       O  0.82577458  0.70910327  0.53076026    -0.73500
O1844       O  0.78896060  0.96032520  0.97214834    -0.73600
Ni1845     Ni  0.86743280  0.67106368  0.50070630     1.25400
Ni1846     Ni  0.80751977  0.00129313  0.00127940     1.25400
C1847       C  0.80949660  0.94540950  0.96255073     0.88700
C1848       C  0.86075453  0.72393653  0.54129755     0.88600
C1849       C  0.80973194  0.94934050  0.54230084     0.88600
C1850       C  0.86533248  0.72227806  0.95920876     0.88800
C1851       C  0.72526981  0.85646456  0.92438082     0.04100
C1852       C  0.74748278  0.88724243  0.94462617    -0.12100
C1853       C  0.78918637  0.91089489  0.94193408     0.01600
C1854       C  0.80920929  0.90199837  0.91926308    -0.10600
C1855       C  0.78721602  0.87025252  0.89906312     0.04000
C1856       C  0.74524185  0.84827348  0.90159514    -0.10000
H1857       H  0.73185279  0.89327920  0.96240639     0.09600
H1858       H  0.84128369  0.91959655  0.91728300     0.07200
H1859       H  0.72787717  0.82390494  0.88620327     0.07000
C1860       C  0.94580824  0.80021521  0.90844981     0.04100
C1861       C  0.92608796  0.77260016  0.93175113    -0.12100
C1862       C  0.88433756  0.75322595  0.93531948     0.01600
C1863       C  0.86225119  0.76272569  0.91548694    -0.10900
C1864       C  0.88194174  0.79092932  0.89223120     0.04000
C1865       C  0.92346651  0.80854085  0.88854852    -0.10000
H1866       H  0.94345322  0.76564254  0.94683008     0.09600
H1867       H  0.83033389  0.74868555  0.91825285     0.07200
H1868       H  0.93887503  0.82986389  0.87041990     0.07000
O1869       O  0.70958925  0.82397371  0.69824781    -0.73500
O1870       O  0.96021614  0.78439887  0.63668566    -0.73500
O1871       O  0.70732641  0.82174341  0.63696931    -0.73600
O1872       O  0.96188018  0.78378085  0.69783071    -0.73600
O1873       O  0.96199199  0.84096151  0.69923497    -0.73600
O1874       O  0.70925670  0.87979840  0.63597755    -0.73500
O1875       O  0.96249813  0.84266101  0.63816019    -0.73500
O1876       O  0.70968567  0.88116177  0.69721536    -0.73600
Ni1877     Ni  0.66806694  0.80084547  0.66797584     1.25400
Ni1878     Ni  0.66924346  0.86262478  0.66797961     1.25400
C1879       C  0.72379745  0.86016721  0.70699543     0.88700
C1880       C  0.94724740  0.80721001  0.62812881     0.88600
C1881       C  0.72176400  0.85688833  0.62632808     0.88600
C1882       C  0.94785438  0.80479160  0.70811864     0.88800
C1883       C  0.85846719  0.80200786  0.59099264     0.04100
C1884       C  0.85042255  0.77431992  0.56787956    -0.12100
C1885       C  0.87284841  0.75527965  0.56466811     0.01600
C1886       C  0.90457947  0.76525259  0.58454920    -0.10600
C1887       C  0.91318014  0.79353150  0.60755041     0.04000
C1888       C  0.88940483  0.81094100  0.61085273    -0.10000
H1889       H  0.82590682  0.76690586  0.55279293     0.09600
H1890       H  0.92232390  0.75126037  0.58216722     0.07200
H1891       H  0.89534889  0.83222722  0.62887048     0.07000
C1892       C  0.80176354  0.85746913  0.57683405     0.04100
C1893       C  0.77264639  0.84763682  0.59928659    -0.12100
C1894       C  0.75362419  0.87001887  0.60300387     0.01600
C1895       C  0.76504261  0.90348464  0.58427862    -0.10600
C1896       C  0.79477911  0.91384450  0.56195021     0.04000
C1897       C  0.81209068  0.89003699  0.55808302    -0.10000
H1898       H  0.76441196  0.82198141  0.61358604     0.09600
H1899       H  0.75117837  0.92129431  0.58711817     0.07200
H1900       H  0.83445975  0.89723594  0.54054416     0.07000
O1901       O  0.88109667  0.84035908  0.80137556    -0.73500
O1902       O  0.84214328  0.88049141  0.86606756    -0.73500
O1903       O  0.88257877  0.84086316  0.86259792    -0.73600
O1904       O  0.84355018  0.88258096  0.80460063    -0.73600
O1905       O  0.78515895  0.82603580  0.80329010    -0.73600
O1906       O  0.82525331  0.78306365  0.86389653    -0.73500
O1907       O  0.78478887  0.82285333  0.86481789    -0.73500
O1908       O  0.82258415  0.78390317  0.80276398    -0.73600
Ni1909     Ni  0.86436988  0.86314247  0.83370404     1.25400
Ni1910     Ni  0.80234425  0.80197245  0.83377005     1.25400
C1911       C  0.85764743  0.80465270  0.79189524     0.88700
C1912       C  0.80619729  0.85771450  0.87564847     0.88600
C1913       C  0.86158844  0.80523052  0.87226264     0.88600
C1914       C  0.80862014  0.86195166  0.79399657     0.88800
C1915       C  0.85602808  0.72203789  0.74594781     0.04100
C1916       C  0.88975635  0.74297373  0.72757634    -0.12100
C1917       C  0.91344883  0.78484952  0.72910239     0.01600
C1918       C  0.90346927  0.80587489  0.75001372    -0.10600
C1919       C  0.86977346  0.78492194  0.76894430     0.04000
C1920       C  0.84603709  0.74312898  0.76617456    -0.10000
H1921       H  0.89680378  0.72650068  0.71131537     0.09600
H1922       H  0.92166984  0.83797193  0.75155690     0.07200
H1923       H  0.81990541  0.72636363  0.78045531     0.07000
C1924       C  0.81425043  0.94341208  0.74416115     0.04100
C1925       C  0.82095043  0.92326375  0.76738948    -0.12100
C1926       C  0.79717660  0.88146910  0.77066706     0.01600
C1927       C  0.76532337  0.85989010  0.75068426    -0.10600
C1928       C  0.75801891  0.88012427  0.72754666     0.04000
C1929       C  0.78321018  0.92157769  0.72417713    -0.10000
H1930       H  0.84558345  0.94029086  0.78252816     0.09600
H1931       H  0.74652748  0.82792574  0.75308359     0.07200
H1932       H  0.77820665  0.93728895  0.70608996     0.07000
C1933       C  0.83034942  0.67808672  0.74414612    -0.15500
C1934       C  0.83949420  0.98723820  0.74000350    -0.30700
H1935       H  0.79844737  0.66513201  0.74705392     0.13500
H1936       H  0.84401093  0.99913756  0.71707389     0.14100
C1937       C  0.82170251  0.83403422  0.57217062    -0.15500
C1938       C  0.83452673  0.82147197  0.59546936    -0.30700
H1939       H  0.82955097  0.83055895  0.54907323     0.13500
H1940       H  0.83049869  0.82894947  0.61852579     0.14100
C1941       C  0.98972523  0.82061241  0.90425239    -0.15500
C1942       C  0.68128810  0.83263056  0.92826571    -0.30700
H1943       H  0.00168914  0.82838030  0.88128229     0.13500
H1944       H  0.66927057  0.82853382  0.95121096     0.14100
loop_ 
_geom_bond_atom_site_label_1 
_geom_bond_atom_site_label_2 
_geom_bond_distance 
_geom_bond_site_symmetry_2 
_ccdc_geom_bond_type 
O1           C11   1.286       .  A
O1         Ni333   1.943       .  S
O2           C12   1.288       .  A
O2           Ni9   1.947   1_545  S
O3           C13   1.274       .  A
O3         Ni225   1.885       .  S
O4           C14   1.275       .  A
O4         Ni117   1.885       .  S
O5           C14   1.287       .  A
O5         Ni442   1.945       .  S
O6           C13   1.288       .  A
O6         Ni118   1.947       .  S
O7           C12   1.274       .  A
O7         Ni550   1.885   1_545  S
O8           C11   1.275       .  A
O8          Ni10   1.881       .  S
Ni9         O541   1.949   1_554  S
Ni9         O435   1.889       .  S
Ni9         O112   1.887   1_564  S
Ni9        Ni550   2.386       .  S
Ni10        O221   1.950       .  S
Ni10        O114   1.952       .  S
Ni10        O331   1.889       .  S
Ni10       Ni333   2.385       .  S
C11          C17   1.474       .  S
C12          C49   1.478       .  S
C13          C60   1.477       .  S
C14          C26   1.481       .  S
C15          C16   1.390       .  A
C15          C20   1.397       .  A
C15         C106   1.485       .  S
C16          C17   1.408       .  A
C16          H21   1.085       .  S
C17          C18   1.407       .  A
C18          C19   1.409       .  A
C18          H22   1.083       .  S
C19          C76   1.480       .  S
C19          C20   1.415       .  A
C20          H23   1.083       .  S
C24          C25   1.397       .  A
C24          C29   1.393       .  A
C24         C105   1.489       .  S
C25          C26   1.414       .  A
C25          H30   1.083       .  S
C26          C27   1.411       .  A
C27          C28   1.408       .  A
C27          H31   1.083       .  S
C28          C77   1.479       .  S
C28          C29   1.411       .  A
C29          H32   1.084       .  S
O33          C43   1.289       .  A
O33         Ni41   1.950   1_455  S
O34          C44   1.288       .  A
O34        Ni689   1.947       .  S
O35          C45   1.274       .  A
O35         Ni41   1.877   1_455  S
O36          C46   1.274       .  A
O36        Ni689   1.881       .  S
O37          C46   1.288       .  A
O37        Ni690   1.949       .  S
O38          C45   1.288       .  A
O38         Ni42   1.950       .  S
O39          C44   1.274       .  A
O39        Ni690   1.877       .  S
O40          C43   1.273       .  A
O40         Ni42   1.881       .  S
Ni41       O1330   1.952       .  S
Ni41       O1332   1.881       .  S
Ni41        Ni42   2.385   1_655  S
Ni42       O1333   1.949   1_455  S
Ni42       O1335   1.877   1_455  S
C43          C92   1.479       .  S
C44          C51   1.479       .  S
C45          C58   1.481       .  S
C46          C81   1.478       .  S
C47          C48   1.397       .  A
C47          C52   1.391       .  A
C47         C102   1.484       .  S
C48          C49   1.415       .  A
C48          H53   1.084       .  S
C49          C50   1.408       .  A
C50          C51   1.407       .  A
C50          H54   1.083       .  S
C51          C52   1.411       .  A
C52          H55   1.084       .  S
C56          C57   1.392       .  A
C56          C61   1.397       .  A
C56         C101   1.487       .  S
C57          C58   1.412       .  A
C57          H62   1.084       .  S
C58          C59   1.408       .  A
C59          C60   1.409       .  A
C59          H63   1.083       .  S
C60          C61   1.413       .  A
C61          H64   1.084       .  S
O65          C75   1.288       .  A
O65         Ni73   1.949       .  S
O66          C76   1.288       .  A
O66         Ni73   1.948       .  S
O67          C77   1.274       .  A
O67         Ni73   1.879       .  S
O68          C78   1.274       .  A
O68         Ni73   1.876       .  S
O69          C78   1.288       .  A
O69         Ni74   1.949       .  S
O70          C77   1.288       .  A
O70         Ni74   1.952       .  S
O71          C76   1.274       .  A
O71         Ni74   1.881       .  S
O72          C75   1.274       .  A
O72         Ni74   1.877       .  S
Ni73        Ni74   2.385       .  S
C75          C83   1.481       .  S
C78          C90   1.480       .  S
C79          C80   1.394       .  A
C79          C84   1.390       .  A
C79          C97   1.485       .  S
C80          C81   1.413       .  A
C80          H85   1.084       .  S
C81          C82   1.410       .  A
C82          C83   1.410       .  A
C82          H86   1.083       .  S
C83          C84   1.412       .  A
C84          H87   1.084       .  S
C88          C89   1.391       .  A
C88          C93   1.396       .  A
C88          C98   1.485       .  S
C89          C90   1.412       .  A
C89          H94   1.084       .  S
C90          C91   1.408       .  A
C91          C92   1.409       .  A
C91          H95   1.083       .  S
C92          C93   1.415       .  A
C93          H96   1.084       .  S
C97          H99   1.087       .  S
C97         C530   1.343   1_545  D
C98         H100   1.087       .  S
C98         C313   1.343       .  D
C101        H103   1.087       .  S
C101        C102   1.343       .  D
C102        H104   1.087       .  S
C105        H107   1.087       .  S
C105        C754   1.346       .  D
C106        H108   1.087       .  S
C106       C1401   1.346   1_455  D
O109        C119   1.288       .  A
O109       Ni225   1.950   1_556  S
O110        C120   1.288       .  A
O110       Ni117   1.947       .  S
O111        C121   1.274       .  A
O111       Ni333   1.881       .  S
O112        C122   1.276       .  A
O113        C122   1.288       .  A
O113       Ni550   1.946   1_546  S
O114        C121   1.288       .  A
O115        C120   1.276       .  A
O115       Ni442   1.889       .  S
O116        C119   1.275       .  A
O116       Ni118   1.882   1_556  S
Ni117       O433   1.948   1_545  S
Ni117       O543   1.883   1_545  S
Ni117      Ni442   2.386       .  S
Ni118       O329   1.948   1_554  S
Ni118       O223   1.884       .  S
Ni118      Ni225   2.385       .  S
C119        C125   1.479       .  S
C120        C157   1.484       .  S
C121        C168   1.480       .  S
C122        C134   1.483       .  S
C123        C124   1.392       .  A
C123        C128   1.398       .  A
C123        C214   1.486       .  S
C124        C125   1.409       .  A
C124        H129   1.085       .  S
C125        C126   1.407       .  A
C126        C127   1.411       .  A
C126        H130   1.083       .  S
C127        C184   1.482       .  S
C127        C128   1.414       .  A
C128        H131   1.083       .  S
C132        C133   1.398       .  A
C132        C137   1.392       .  A
C132        C213   1.488       .  S
C133        C134   1.415       .  A
C133        H138   1.083       .  S
C134        C135   1.411       .  A
C135        C136   1.407       .  A
C135        H139   1.083       .  S
C136        C185   1.477       .  S
C136        C137   1.409       .  A
C137        H140   1.085       .  S
O141        C151   1.288       .  A
O141       Ni149   1.949       .  S
O142        C152   1.288       .  A
O142       Ni797   1.950       .  S
O143        C153   1.276       .  A
O143       Ni149   1.887       .  S
O144        C154   1.275       .  A
O144       Ni797   1.886       .  S
O145        C154   1.287       .  A
O145       Ni798   1.946       .  S
O146        C153   1.287       .  A
O146       Ni150   1.947       .  S
O147        C152   1.275       .  A
O147       Ni798   1.885       .  S
O148        C151   1.275       .  A
O148       Ni150   1.887       .  S
Ni149      O1438   1.950   1_455  S
Ni149      O1440   1.887   1_455  S
Ni149      Ni150   2.385       .  S
Ni150      O1441   1.944   1_455  S
Ni150      O1443   1.886   1_455  S
C151        C200   1.480       .  S
C152        C159   1.481       .  S
C153        C166   1.482       .  S
C154        C189   1.481       .  S
C155        C156   1.399       .  A
C155        C160   1.394       .  A
C155        C210   1.490       .  S
C156        C157   1.414       .  A
C156        H161   1.083       .  S
C157        C158   1.411       .  A
C158        C159   1.409       .  A
C158        H162   1.083       .  S
C159        C160   1.411       .  A
C160        H163   1.084       .  S
C164        C165   1.398       .  A
C164        C169   1.393       .  A
C164        C209   1.489       .  S
C165        C166   1.415       .  A
C165        H170   1.083       .  S
C166        C167   1.411       .  A
C167        C168   1.408       .  A
C167        H171   1.083       .  S
C168        C169   1.411       .  A
C169        H172   1.084       .  S
O173        C183   1.286       .  A
O173       Ni181   1.944       .  S
O174        C184   1.287       .  A
O174       Ni181   1.945       .  S
O175        C185   1.275       .  A
O175       Ni181   1.882       .  S
O176        C186   1.276       .  A
O176       Ni181   1.884       .  S
O177        C186   1.287       .  A
O177       Ni182   1.946       .  S
O178        C185   1.287       .  A
O178       Ni182   1.948       .  S
O179        C184   1.276       .  A
O179       Ni182   1.888       .  S
O180        C183   1.275       .  A
O180       Ni182   1.881       .  S
Ni181      Ni182   2.386       .  S
C183        C191   1.474       .  S
C186        C198   1.483       .  S
C187        C188   1.397       .  A
C187        C192   1.390       .  A
C187        C205   1.483       .  S
C188        C189   1.415       .  A
C188        H193   1.083       .  S
C189        C190   1.411       .  A
C190        C191   1.407       .  A
C190        H194   1.083       .  S
C191        C192   1.407       .  A
C192        H195   1.085       .  S
C196        C197   1.391       .  A
C196        C201   1.395       .  A
C196        C206   1.481       .  S
C197        C198   1.411       .  A
C197        H202   1.084       .  S
C198        C199   1.411       .  A
C199        C200   1.410       .  A
C199        H203   1.083       .  S
C200        C201   1.412       .  A
C201        H204   1.084       .  S
C205        H207   1.087       .  S
C205        C638   1.345   1_545  D
C206        H208   1.087       .  S
C206        C421   1.343       .  D
C209        H211   1.087       .  S
C209        C210   1.347       .  D
C210        H212   1.087       .  S
C213        H215   1.087       .  S
C213        C862   1.346       .  D
C214        H216   1.087       .  S
C214       C1509   1.345   1_455  D
O217        C227   1.286       .  A
O217       Ni549   1.943       .  S
O218        C228   1.289       .  A
O218       Ni225   1.949       .  S
O219        C229   1.276       .  A
O219       Ni441   1.887   1_554  S
O220        C230   1.275       .  A
O220       Ni333   1.883       .  S
O221        C230   1.288       .  A
O222        C229   1.288       .  A
O222       Ni334   1.950   1_554  S
O223        C228   1.274       .  A
O224        C227   1.274       .  A
O224       Ni226   1.878       .  S
Ni225       O328   1.886   1_554  S
Ni226       O437   1.945       .  S
Ni226       O330   1.946       .  S
Ni226       O547   1.883       .  S
Ni226      Ni549   2.387       .  S
C227        C233   1.473       .  S
C228        C265   1.483       .  S
C229        C276   1.482       .  S
C230        C242   1.485       .  S
C231        C232   1.390       .  A
C231        C236   1.396       .  A
C231        C322   1.487       .  S
C232        C233   1.409       .  A
C232        H237   1.085       .  S
C233        C234   1.407       .  A
C234        C235   1.408       .  A
C234        H238   1.083       .  S
C235        C292   1.480       .  S
C235        C236   1.416       .  A
C236        H239   1.083       .  S
C240        C241   1.391       .  A
C240        C245   1.397       .  A
C240        C321   1.486       .  S
C241        C242   1.411       .  A
C241        H246   1.084       .  S
C242        C243   1.411       .  A
C243        C244   1.412       .  A
C243        H247   1.083       .  S
C244        C293   1.483       .  S
C244        C245   1.415       .  A
C245        H248   1.084       .  S
O249        C259   1.286       .  A
O249       Ni257   1.945       .  S
O250        C260   1.287       .  A
O250       Ni905   1.945       .  S
O251        C261   1.277       .  A
O251       Ni257   1.892       .  S
O252        C262   1.275       .  A
O252       Ni905   1.885       .  S
O253        C262   1.288       .  A
O253       Ni906   1.947       .  S
O254        C261   1.288       .  A
O254       Ni258   1.947       .  S
O255        C260   1.275       .  A
O255       Ni906   1.885       .  S
O256        C259   1.275       .  A
O256       Ni258   1.883       .  S
Ni257      O1546   1.947   1_455  S
Ni257      O1548   1.889   1_455  S
Ni257      Ni258   2.386       .  S
Ni258      O1549   1.946   1_455  S
Ni258      O1551   1.882   1_455  S
C259        C308   1.477       .  S
C260        C267   1.476       .  S
C261        C274   1.486       .  S
C262        C297   1.478       .  S
C263        C264   1.399       .  A
C263        C268   1.393       .  A
C263        C318   1.489       .  S
C264        C265   1.416       .  A
C264        H269   1.083       .  S
C265        C266   1.409       .  A
C266        C267   1.407       .  A
C266        H270   1.083       .  S
C267        C268   1.408       .  A
C268        H271   1.085       .  S
C272        C273   1.399       .  A
C272        C277   1.394       .  A
C272        C317   1.489       .  S
C273        C274   1.415       .  A
C273        H278   1.083       .  S
C274        C275   1.413       .  A
C275        C276   1.410       .  A
C275        H279   1.083       .  S
C276        C277   1.410       .  A
C277        H280   1.085       .  S
O281        C291   1.289       .  A
O281       Ni289   1.953       .  S
O282        C292   1.289       .  A
O282       Ni289   1.951       .  S
O283        C293   1.275       .  A
O283       Ni289   1.888       .  S
O284        C294   1.274       .  A
O284       Ni289   1.883       .  S
O285        C294   1.288       .  A
O285       Ni290   1.950       .  S
O286        C293   1.289       .  A
O286       Ni290   1.952       .  S
O287        C292   1.273       .  A
O287       Ni290   1.876       .  S
O288        C291   1.273       .  A
O288       Ni290   1.873       .  S
Ni289      Ni290   2.384       .  S
C291        C299   1.482       .  S
C294        C306   1.482       .  S
C295        C296   1.395       .  A
C295        C300   1.390       .  A
C295        C313   1.484       .  S
C296        C297   1.413       .  A
C296        H301   1.084       .  S
C297        C298   1.410       .  A
C298        C299   1.409       .  A
C298        H302   1.083       .  S
C299        C300   1.413       .  A
C300        H303   1.084       .  S
C304        C305   1.397       .  A
C304        C309   1.391       .  A
C304        C314   1.486       .  S
C305        C306   1.414       .  A
C305        H310   1.083       .  S
C306        C307   1.410       .  A
C307        C308   1.409       .  A
C307        H311   1.083       .  S
C308        C309   1.408       .  A
C309        H312   1.085       .  S
C313        H315   1.087       .  S
C314        H316   1.087       .  S
C314        C529   1.345       .  D
C317        H319   1.087       .  S
C317        C318   1.346       .  D
C318        H320   1.087       .  S
C321        H323   1.087       .  S
C321        C970   1.344       .  D
C322        H324   1.087       .  S
C322       C1617   1.346   1_455  D
O325        C335   1.288       .  A
O325       Ni441   1.952       .  S
O326        C336   1.287       .  A
O326       Ni333   1.944       .  S
O327        C337   1.274       .  A
O327       Ni549   1.880       .  S
O328        C338   1.276       .  A
O329        C338   1.288       .  A
O330        C337   1.287       .  A
O331        C336   1.276       .  A
O332        C335   1.275       .  A
O332       Ni334   1.880       .  S
Ni334       O545   1.947       .  S
Ni334       O439   1.885   1_556  S
Ni334      Ni441   2.385       .  S
C335        C341   1.485       .  S
C336        C373   1.482       .  S
C337        C384   1.475       .  S
C338        C350   1.484       .  S
C339        C340   1.390       .  A
C339        C344   1.396       .  A
C339        C430   1.485       .  S
C340        C341   1.412       .  A
C340        H345   1.084       .  S
C341        C342   1.410       .  A
C342        C343   1.412       .  A
C342        H346   1.083       .  S
C343        C400   1.481       .  S
C343        C344   1.414       .  A
C344        H347   1.084       .  S
C348        C349   1.397       .  A
C348        C353   1.392       .  A
C348        C429   1.488       .  S
C349        C350   1.415       .  A
C349        H354   1.083       .  S
C350        C351   1.412       .  A
C351        C352   1.409       .  A
C351        H355   1.083       .  S
C352        C401   1.480       .  S
C352        C353   1.410       .  A
C353        H356   1.085       .  S
O357        C367   1.288       .  A
O357       Ni365   1.946       .  S
O358        C368   1.288       .  A
O358      Ni1013   1.950       .  S
O359        C369   1.274       .  A
O359       Ni365   1.882       .  S
O360        C370   1.275       .  A
O360      Ni1013   1.886       .  S
O361        C370   1.287       .  A
O361      Ni1014   1.945       .  S
O362        C369   1.288       .  A
O362       Ni366   1.947       .  S
O363        C368   1.275       .  A
O363      Ni1014   1.884       .  S
O364        C367   1.274       .  A
O364       Ni366   1.882       .  S
Ni365      O1654   1.948   1_455  S
Ni365      O1656   1.880   1_455  S
Ni365      Ni366   2.386       .  S
Ni366      O1657   1.947   1_455  S
Ni366      O1659   1.882   1_455  S
C367        C416   1.476       .  S
C368        C375   1.479       .  S
C369        C382   1.480       .  S
C370        C405   1.479       .  S
C371        C372   1.399       .  A
C371        C376   1.394       .  A
C371        C426   1.489       .  S
C372        C373   1.414       .  A
C372        H377   1.083       .  S
C373        C374   1.410       .  A
C374        C375   1.407       .  A
C374        H378   1.083       .  S
C375        C376   1.410       .  A
C376        H379   1.084       .  S
C380        C381   1.398       .  A
C380        C385   1.393       .  A
C380        C425   1.488       .  S
C381        C382   1.415       .  A
C381        H386   1.083       .  S
C382        C383   1.408       .  A
C383        C384   1.406       .  A
C383        H387   1.083       .  S
C384        C385   1.410       .  A
C385        H388   1.085       .  S
O389        C399   1.287       .  A
O389       Ni397   1.948       .  S
O390        C400   1.288       .  A
O390       Ni397   1.948       .  S
O391        C401   1.275       .  A
O391       Ni397   1.883       .  S
O392        C402   1.274       .  A
O392       Ni397   1.879       .  S
O393        C402   1.287       .  A
O393       Ni398   1.947       .  S
O394        C401   1.287       .  A
O394       Ni398   1.950       .  S
O395        C400   1.275       .  A
O395       Ni398   1.889       .  S
O396        C399   1.275       .  A
O396       Ni398   1.881       .  S
Ni397      Ni398   2.385       .  S
C399        C407   1.482       .  S
C402        C414   1.479       .  S
C403        C404   1.394       .  A
C403        C408   1.390       .  A
C403        C421   1.483       .  S
C404        C405   1.412       .  A
C404        H409   1.084       .  S
C405        C406   1.411       .  A
C406        C407   1.410       .  A
C406        H410   1.083       .  S
C407        C408   1.411       .  A
C408        H411   1.084       .  S
C412        C413   1.391       .  A
C412        C417   1.395       .  A
C412        C422   1.481       .  S
C413        C414   1.411       .  A
C413        H418   1.084       .  S
C414        C415   1.408       .  A
C415        C416   1.408       .  A
C415        H419   1.083       .  S
C416        C417   1.412       .  A
C417        H420   1.084       .  S
C421        H423   1.087       .  S
C422        H424   1.087       .  S
C422        C637   1.343       .  D
C425        H427   1.087       .  S
C425        C426   1.346       .  D
C426        H428   1.087       .  S
C429        H431   1.087       .  S
C429       C1078   1.346       .  D
C430        H432   1.087       .  S
C430       C1725   1.343   1_455  D
O433        C443   1.287       .  A
O434        C444   1.288       .  A
O434       Ni441   1.950   1_554  S
O435        C445   1.275       .  A
O436        C446   1.275       .  A
O436       Ni549   1.883       .  S
O437        C446   1.287       .  A
O438        C445   1.288       .  A
O438       Ni550   1.948       .  S
O439        C444   1.274       .  A
O440        C443   1.275       .  A
O440       Ni442   1.885   1_565  S
Ni441       O544   1.886       .  S
Ni442       O546   1.946   1_545  S
C443        C449   1.479       .  S
C444        C481   1.481       .  S
C445        C492   1.481       .  S
C446        C458   1.481       .  S
C447        C448   1.394       .  A
C447        C452   1.398       .  A
C447        C538   1.487       .  S
C448        C449   1.410       .  A
C448        H453   1.085       .  S
C449        C450   1.407       .  A
C450        C451   1.410       .  A
C450        H454   1.083       .  S
C451        C508   1.481       .  S
C451        C452   1.414       .  A
C452        H455   1.083       .  S
C456        C457   1.396       .  A
C456        C461   1.391       .  A
C456        C537   1.487       .  S
C457        C458   1.413       .  A
C457        H462   1.083       .  S
C458        C459   1.411       .  A
C459        C460   1.409       .  A
C459        H463   1.083       .  S
C460        C509   1.478       .  S
C460        C461   1.410       .  A
C461        H464   1.085       .  S
O465        C475   1.288       .  A
O465       Ni473   1.946   1_455  S
O466        C476   1.288       .  A
O466      Ni1121   1.951       .  S
O467        C477   1.275       .  A
O467       Ni473   1.884   1_455  S
O468        C478   1.274       .  A
O468      Ni1121   1.878       .  S
O469        C478   1.289       .  A
O469      Ni1122   1.952       .  S
O470        C477   1.288       .  A
O470       Ni474   1.948   1_455  S
O471        C476   1.274       .  A
O471      Ni1122   1.877       .  S
O472        C475   1.275       .  A
O472       Ni474   1.890   1_455  S
Ni473      O1762   1.947       .  S
Ni473      O1764   1.885       .  S
Ni473      Ni474   2.386       .  S
Ni474      O1765   1.948       .  S
Ni474      O1767   1.885       .  S
C475        C524   1.480       .  S
C476        C483   1.483       .  S
C477        C490   1.484       .  S
C478        C513   1.483       .  S
C479        C480   1.396       .  A
C479        C484   1.391       .  A
C479        C534   1.486       .  S
C480        C481   1.415       .  A
C480        H485   1.084       .  S
C481        C482   1.411       .  A
C482        C483   1.410       .  A
C482        H486   1.083       .  S
C483        C484   1.412       .  A
C484        H487   1.084       .  S
C488        C489   1.392       .  A
C488        C493   1.397       .  A
C488        C533   1.486       .  S
C489        C490   1.412       .  A
C489        H494   1.084       .  S
C490        C491   1.410       .  A
C491        C492   1.410       .  A
C491        H495   1.083       .  S
C492        C493   1.414       .  A
C493        H496   1.084       .  S
O497        C507   1.286       .  A
O497       Ni505   1.944       .  S
O498        C508   1.287       .  A
O498       Ni505   1.944       .  S
O499        C509   1.275       .  A
O499       Ni505   1.881       .  S
O500        C510   1.275       .  A
O500       Ni505   1.883       .  S
O501        C510   1.287       .  A
O501       Ni506   1.947       .  S
O502        C509   1.287       .  A
O502       Ni506   1.950       .  S
O503        C508   1.276       .  A
O503       Ni506   1.888       .  S
O504        C507   1.275       .  A
O504       Ni506   1.882       .  S
Ni505      Ni506   2.386       .  S
C507        C515   1.474       .  S
C510        C522   1.483       .  S
C511        C512   1.396       .  A
C511        C516   1.390       .  A
C511        C529   1.486       .  S
C512        C513   1.415       .  A
C512        H517   1.083       .  S
C513        C514   1.410       .  A
C514        C515   1.408       .  A
C514        H518   1.083       .  S
C515        C516   1.409       .  A
C516        H519   1.085       .  S
C520        C521   1.391       .  A
C520        C525   1.396       .  A
C520        C530   1.483       .  S
C521        C522   1.411       .  A
C521        H526   1.084       .  S
C522        C523   1.410       .  A
C523        C524   1.410       .  A
C523        H527   1.083       .  S
C524        C525   1.413       .  A
C525        H528   1.084       .  S
C529        H531   1.087       .  S
C530        H532   1.087   1_565  S
C533        H535   1.087       .  S
C533        C534   1.343       .  D
C534        H536   1.087       .  S
C537        H539   1.087       .  S
C537       C1186   1.345       .  D
C538        H540   1.087       .  S
C538       C1833   1.346   1_455  D
O541        C551   1.287       .  A
O542        C552   1.287       .  A
O542       Ni549   1.941       .  S
O543        C553   1.275       .  A
O544        C554   1.275       .  A
O545        C554   1.288       .  A
O546        C553   1.287       .  A
O547        C552   1.275       .  A
O548        C551   1.275       .  A
O548       Ni550   1.880   1_556  S
C551        C557   1.478       .  S
C552        C589   1.477       .  S
C553        C600   1.477       .  S
C554        C566   1.482       .  S
C555        C556   1.392       .  A
C555        C560   1.397       .  A
C555        C646   1.488       .  S
C556        C557   1.410       .  A
C556        H561   1.085       .  S
C557        C558   1.409       .  A
C558        C559   1.411       .  A
C558        H562   1.083       .  S
C559        C616   1.483       .  S
C559        C560   1.416       .  A
C560        H563   1.083       .  S
C564        C565   1.398       .  A
C564        C569   1.394       .  A
C564        C645   1.490       .  S
C565        C566   1.414       .  A
C565        H570   1.083       .  S
C566        C567   1.410       .  A
C567        C568   1.408       .  A
C567        H571   1.083       .  S
C568        C617   1.480       .  S
C568        C569   1.411       .  A
C569        H572   1.084       .  S
O573        C583   1.286       .  A
O573       Ni581   1.944       .  S
O574        C584   1.287       .  A
O574      Ni1229   1.944       .  S
O575        C585   1.276       .  A
O575       Ni581   1.886       .  S
O576        C586   1.276       .  A
O576      Ni1229   1.886       .  S
O577        C586   1.286       .  A
O577      Ni1230   1.943       .  S
O578        C585   1.287       .  A
O578       Ni582   1.943       .  S
O579        C584   1.274       .  A
O579      Ni1230   1.882       .  S
O580        C583   1.276       .  A
O580       Ni582   1.885       .  S
Ni581      O1870   1.945   1_455  S
Ni581      O1872   1.885   1_455  S
Ni581      Ni582   2.387       .  S
Ni582      O1873   1.942   1_455  S
Ni582      O1875   1.885   1_455  S
C583        C632   1.476       .  S
C584        C591   1.473       .  S
C585        C598   1.479       .  S
C586        C621   1.478       .  S
C587        C588   1.397       .  A
C587        C592   1.393       .  A
C587        C642   1.486       .  S
C588        C589   1.412       .  A
C588        H593   1.083       .  S
C589        C590   1.407       .  A
C590        C591   1.405       .  A
C590        H594   1.083       .  S
C591        C592   1.409       .  A
C592        H595   1.085       .  S
C596        C597   1.397       .  A
C596        C601   1.392       .  A
C596        C641   1.485       .  S
C597        C598   1.413       .  A
C597        H602   1.083       .  S
C598        C599   1.410       .  A
C599        C600   1.407       .  A
C599        H603   1.083       .  S
C600        C601   1.409       .  A
C601        H604   1.084       .  S
O605        C615   1.288       .  A
O605       Ni613   1.951       .  S
O606        C616   1.288       .  A
O606       Ni613   1.951       .  S
O607        C617   1.274       .  A
O607       Ni613   1.882       .  S
O608        C618   1.274       .  A
O608       Ni613   1.880       .  S
O609        C618   1.288       .  A
O609       Ni614   1.949       .  S
O610        C617   1.288       .  A
O610       Ni614   1.951       .  S
O611        C616   1.274       .  A
O611       Ni614   1.882       .  S
O612        C615   1.274       .  A
O612       Ni614   1.877       .  S
Ni613      Ni614   2.384       .  S
C615        C623   1.482       .  S
C618        C630   1.482       .  S
C619        C620   1.394       .  A
C619        C624   1.391       .  A
C619        C637   1.483       .  S
C620        C621   1.412       .  A
C620        H625   1.084       .  S
C621        C622   1.410       .  A
C622        C623   1.409       .  A
C622        H626   1.083       .  S
C623        C624   1.412       .  A
C624        H627   1.084       .  S
C628        C629   1.396       .  A
C628        C633   1.392       .  A
C628        C638   1.486       .  S
C629        C630   1.413       .  A
C629        H634   1.083       .  S
C630        C631   1.410       .  A
C631        C632   1.409       .  A
C631        H635   1.083       .  S
C632        C633   1.409       .  A
C633        H636   1.085       .  S
C637        H639   1.087       .  S
C638        H640   1.087       .  S
C641        H643   1.087       .  S
C641        C642   1.345       .  D
C642        H644   1.087       .  S
C645        H647   1.087       .  S
C645       C1294   1.347       .  D
C646        H648   1.087       .  S
C646       C1941   1.347   1_455  D
O649        C659   1.287       .  A
O649       Ni981   1.947       .  S
O650        C660   1.288       .  A
O650       Ni657   1.946       .  S
O651        C661   1.275       .  A
O651       Ni873   1.887       .  S
O652        C662   1.276       .  A
O652       Ni765   1.887       .  S
O653        C662   1.287       .  A
O653      Ni1090   1.945       .  S
O654        C661   1.287       .  A
O654       Ni766   1.945       .  S
O655        C660   1.275       .  A
O655      Ni1198   1.887       .  S
O656        C659   1.276       .  A
O656       Ni658   1.884       .  S
Ni657      O1189   1.949   1_544  S
Ni657      O1083   1.884   1_545  S
Ni657       O760   1.885   1_554  S
Ni657     Ni1198   2.386       .  S
Ni658       O869   1.949       .  S
Ni658       O762   1.950       .  S
Ni658       O979   1.890       .  S
Ni658      Ni981   2.385       .  S
C659        C665   1.479       .  S
C660        C697   1.478       .  S
C661        C708   1.478       .  S
C662        C674   1.482       .  S
C663        C664   1.392       .  A
C663        C668   1.397       .  A
C663        C754   1.487       .  S
C664        C665   1.410       .  A
C664        H669   1.084       .  S
C665        C666   1.409       .  A
C666        C667   1.411       .  A
C666        H670   1.083       .  S
C667        C724   1.484       .  S
C667        C668   1.415       .  A
C668        H671   1.083       .  S
C672        C673   1.397       .  A
C672        C677   1.394       .  A
C672        C753   1.490       .  S
C673        C674   1.413       .  A
C673        H678   1.083       .  S
C674        C675   1.411       .  A
C675        C676   1.408       .  A
C675        H679   1.083       .  S
C676        C725   1.481       .  S
C676        C677   1.412       .  A
C677        H680   1.084       .  S
O681        C691   1.288       .  A
O681       Ni689   1.947       .  S
O682        C692   1.288       .  A
O682      Ni1337   1.949       .  S
O683        C693   1.274       .  A
O683       Ni689   1.878       .  S
O684        C694   1.274       .  A
O684      Ni1337   1.881       .  S
O685        C694   1.287       .  A
O685      Ni1338   1.946       .  S
O686        C693   1.288       .  A
O686       Ni690   1.949       .  S
O687        C692   1.274       .  A
O687      Ni1338   1.877       .  S
O688        C691   1.274       .  A
O688       Ni690   1.882       .  S
Ni689      Ni690   2.385       .  S
C691        C740   1.478       .  S
C692        C699   1.480       .  S
C693        C706   1.481       .  S
C694        C729   1.475       .  S
C695        C696   1.397       .  A
C695        C700   1.391       .  A
C695        C750   1.485       .  S
C696        C697   1.414       .  A
C696        H701   1.084       .  S
C697        C698   1.409       .  A
C698        C699   1.407       .  A
C698        H702   1.083       .  S
C699        C700   1.411       .  A
C700        H703   1.084       .  S
C704        C705   1.392       .  A
C704        C709   1.397       .  A
C704        C749   1.486       .  S
C705        C706   1.412       .  A
C705        H710   1.084       .  S
C706        C707   1.408       .  A
C707        C708   1.409       .  A
C707        H711   1.083       .  S
C708        C709   1.413       .  A
C709        H712   1.084       .  S
O713        C723   1.288       .  A
O713       Ni721   1.947       .  S
O714        C724   1.288       .  A
O714       Ni721   1.949       .  S
O715        C725   1.274       .  A
O715       Ni721   1.879       .  S
O716        C726   1.273       .  A
O716       Ni721   1.875       .  S
O717        C726   1.288       .  A
O717       Ni722   1.952       .  S
O718        C725   1.289       .  A
O718       Ni722   1.954       .  S
O719        C724   1.275       .  A
O719       Ni722   1.884       .  S
O720        C723   1.274       .  A
O720       Ni722   1.877       .  S
Ni721      Ni722   2.384       .  S
C723        C731   1.480       .  S
C726        C738   1.482       .  S
C727        C728   1.394       .  A
C727        C732   1.390       .  A
C727        C745   1.482       .  S
C728        C729   1.412       .  A
C728        H733   1.084       .  S
C729        C730   1.408       .  A
C730        C731   1.408       .  A
C730        H734   1.083       .  S
C731        C732   1.412       .  A
C732        H735   1.084       .  S
C736        C737   1.390       .  A
C736        C741   1.395       .  A
C736        C746   1.485       .  S
C737        C738   1.412       .  A
C737        H742   1.084       .  S
C738        C739   1.409       .  A
C739        C740   1.410       .  A
C739        H743   1.083       .  S
C740        C741   1.413       .  A
C741        H744   1.084       .  S
C745        H747   1.087       .  S
C745       C1178   1.343   1_545  D
C746        H748   1.087       .  S
C746        C961   1.343       .  D
C749        H751   1.087       .  S
C749        C750   1.343       .  D
C750        H752   1.087       .  S
C753        H755   1.087       .  S
C753       C1402   1.347       .  D
C754        H756   1.087       .  S
O757        C767   1.287       .  A
O757       Ni873   1.949   1_556  S
O758        C768   1.288       .  A
O758       Ni765   1.947       .  S
O759        C769   1.275       .  A
O759       Ni981   1.883       .  S
O760        C770   1.276       .  A
O761        C770   1.287       .  A
O761      Ni1198   1.945   1_556  S
O762        C769   1.288       .  A
O763        C768   1.276       .  A
O763      Ni1090   1.888       .  S
O764        C767   1.275       .  A
O764       Ni766   1.885   1_556  S
Ni765      O1081   1.946   1_545  S
Ni765      O1191   1.885   1_545  S
Ni765     Ni1090   2.386       .  S
Ni766       O977   1.945   1_554  S
Ni766       O871   1.889       .  S
Ni766      Ni873   2.386       .  S
C767        C773   1.480       .  S
C768        C805   1.483       .  S
C769        C816   1.480       .  S
C770        C782   1.482       .  S
C771        C772   1.393       .  A
C771        C776   1.398       .  A
C771        C862   1.488       .  S
C772        C773   1.409       .  A
C772        H777   1.085       .  S
C773        C774   1.409       .  A
C774        C775   1.412       .  A
C774        H778   1.083       .  S
C775        C832   1.484       .  S
C775        C776   1.415       .  A
C776        H779   1.083       .  S
C780        C781   1.397       .  A
C780        C785   1.392       .  A
C780        C861   1.487       .  S
C781        C782   1.413       .  A
C781        H786   1.083       .  S
C782        C783   1.411       .  A
C783        C784   1.408       .  A
C783        H787   1.083       .  S
C784        C833   1.477       .  S
C784        C785   1.410       .  A
C785        H788   1.085       .  S
O789        C799   1.288       .  A
O789       Ni797   1.950       .  S
O790        C800   1.288       .  A
O790      Ni1445   1.950       .  S
O791        C801   1.275       .  A
O791       Ni797   1.887       .  S
O792        C802   1.276       .  A
O792      Ni1445   1.888       .  S
O793        C802   1.287       .  A
O793      Ni1446   1.944       .  S
O794        C801   1.288       .  A
O794       Ni798   1.947       .  S
O795        C800   1.275       .  A
O795      Ni1446   1.885       .  S
O796        C799   1.275       .  A
O796       Ni798   1.885       .  S
Ni797      Ni798   2.385       .  S
C799        C848   1.480       .  S
C800        C807   1.481       .  S
C801        C814   1.483       .  S
C802        C837   1.482       .  S
C803        C804   1.399       .  A
C803        C808   1.395       .  A
C803        C858   1.490       .  S
C804        C805   1.414       .  A
C804        H809   1.083       .  S
C805        C806   1.410       .  A
C806        C807   1.408       .  A
C806        H810   1.083       .  S
C807        C808   1.411       .  A
C808        H811   1.084       .  S
C812        C813   1.398       .  A
C812        C817   1.394       .  A
C812        C857   1.490       .  S
C813        C814   1.415       .  A
C813        H818   1.083       .  S
C814        C815   1.411       .  A
C815        C816   1.408       .  A
C815        H819   1.083       .  S
C816        C817   1.411       .  A
C817        H820   1.084       .  S
O821        C831   1.286       .  A
O821       Ni829   1.944       .  S
O822        C832   1.287       .  A
O822       Ni829   1.946       .  S
O823        C833   1.275       .  A
O823       Ni829   1.882       .  S
O824        C834   1.276       .  A
O824       Ni829   1.884       .  S
O825        C834   1.287       .  A
O825       Ni830   1.946       .  S
O826        C833   1.287       .  A
O826       Ni830   1.948       .  S
O827        C832   1.276       .  A
O827       Ni830   1.891       .  S
O828        C831   1.276       .  A
O828       Ni830   1.883       .  S
Ni829      Ni830   2.386       .  S
C831        C839   1.476       .  S
C834        C846   1.483       .  S
C835        C836   1.397       .  A
C835        C840   1.390       .  A
C835        C853   1.484       .  S
C836        C837   1.414       .  A
C836        H841   1.083       .  S
C837        C838   1.411       .  A
C838        C839   1.408       .  A
C838        H842   1.083       .  S
C839        C840   1.408       .  A
C840        H843   1.085       .  S
C844        C845   1.389       .  A
C844        C849   1.394       .  A
C844        C854   1.480       .  S
C845        C846   1.410       .  A
C845        H850   1.084       .  S
C846        C847   1.412       .  A
C847        C848   1.412       .  A
C847        H851   1.083       .  S
C848        C849   1.412       .  A
C849        H852   1.084       .  S
C853        H855   1.087       .  S
C853       C1286   1.344   1_545  D
C854        H856   1.087       .  S
C854       C1069   1.343       .  D
C857        H859   1.087       .  S
C857        C858   1.347       .  D
C858        H860   1.087       .  S
C861        H863   1.087       .  S
C861       C1510   1.345       .  D
C862        H864   1.087       .  S
O865        C875   1.289       .  A
O865      Ni1197   1.953       .  S
O866        C876   1.288       .  A
O866       Ni873   1.946       .  S
O867        C877   1.276       .  A
O867      Ni1089   1.891       .  S
O868        C878   1.276       .  A
O868       Ni981   1.886       .  S
O869        C878   1.287       .  A
O870        C877   1.288       .  A
O870       Ni982   1.947       .  S
O871        C876   1.275       .  A
O872        C875   1.274       .  A
O872       Ni874   1.877       .  S
Ni873       O976   1.889   1_554  S
Ni874      O1085   1.948       .  S
Ni874       O978   1.951       .  S
Ni874      O1195   1.881       .  S
Ni874     Ni1197   2.384       .  S
C875        C881   1.485       .  S
C876        C913   1.480       .  S
C877        C924   1.482       .  S
C878        C890   1.485       .  S
C879        C880   1.391       .  A
C879        C884   1.396       .  A
C879        C970   1.487       .  S
C880        C881   1.413       .  A
C880        H885   1.084       .  S
C881        C882   1.410       .  A
C882        C883   1.411       .  A
C882        H886   1.083       .  S
C883        C940   1.480       .  S
C883        C884   1.414       .  A
C884        H887   1.084       .  S
C888        C889   1.396       .  A
C888        C893   1.393       .  A
C888        C969   1.489       .  S
C889        C890   1.413       .  A
C889        H894   1.083       .  S
C890        C891   1.413       .  A
C891        C892   1.412       .  A
C891        H895   1.083       .  S
C892        C941   1.483       .  S
C892        C893   1.412       .  A
C893        H896   1.084       .  S
O897        C907   1.287       .  A
O897       Ni905   1.945       .  S
O898        C908   1.289       .  A
O898      Ni1553   1.954       .  S
O899        C909   1.275       .  A
O899       Ni905   1.886       .  S
O900        C910   1.275       .  A
O900      Ni1553   1.887       .  S
O901        C910   1.288       .  A
O901      Ni1554   1.948       .  S
O902        C909   1.288       .  A
O902       Ni906   1.949       .  S
O903        C908   1.273       .  A
O903      Ni1554   1.878       .  S
O904        C907   1.275       .  A
O904       Ni906   1.888       .  S
Ni905      Ni906   2.386       .  S
C907        C956   1.480       .  S
C908        C915   1.483       .  S
C909        C922   1.485       .  S
C910        C945   1.481       .  S
C911        C912   1.399       .  A
C911        C916   1.394       .  A
C911        C966   1.489       .  S
C912        C913   1.415       .  A
C912        H917   1.084       .  S
C913        C914   1.410       .  A
C914        C915   1.407       .  A
C914        H918   1.083       .  S
C915        C916   1.413       .  A
C916        H919   1.084       .  S
C920        C921   1.394       .  A
C920        C925   1.398       .  A
C920        C965   1.489       .  S
C921        C922   1.413       .  A
C921        H926   1.084       .  S
C922        C923   1.409       .  A
C923        C924   1.410       .  A
C923        H927   1.083       .  S
C924        C925   1.414       .  A
C925        H928   1.084       .  S
O929        C939   1.287       .  A
O929       Ni937   1.947       .  S
O930        C940   1.288       .  A
O930       Ni937   1.947       .  S
O931        C941   1.275       .  A
O931       Ni937   1.886       .  S
O932        C942   1.275       .  A
O932       Ni937   1.881       .  S
O933        C942   1.288       .  A
O933       Ni938   1.950       .  S
O934        C941   1.288       .  A
O934       Ni938   1.952       .  S
O935        C940   1.275       .  A
O935       Ni938   1.887       .  S
O936        C939   1.275       .  A
O936       Ni938   1.883       .  S
Ni937      Ni938   2.385       .  S
C939        C947   1.483       .  S
C942        C954   1.482       .  S
C943        C944   1.396       .  A
C943        C948   1.390       .  A
C943        C961   1.483       .  S
C944        C945   1.414       .  A
C944        H949   1.084       .  S
C945        C946   1.411       .  A
C946        C947   1.410       .  A
C946        H950   1.083       .  S
C947        C948   1.411       .  A
C948        H951   1.084       .  S
C952        C953   1.392       .  A
C952        C957   1.396       .  A
C952        C962   1.485       .  S
C953        C954   1.411       .  A
C953        H958   1.084       .  S
C954        C955   1.409       .  A
C955        C956   1.411       .  A
C955        H959   1.083       .  S
C956        C957   1.413       .  A
C957        H960   1.084       .  S
C961        H963   1.087       .  S
C962        H964   1.087       .  S
C962       C1177   1.343       .  D
C965        H967   1.087       .  S
C965        C966   1.345       .  D
C966        H968   1.087       .  S
C969        H971   1.087       .  S
C969       C1618   1.346       .  D
C970        H972   1.087       .  S
O973        C983   1.287       .  A
O973      Ni1089   1.949   1_556  S
O974        C984   1.287       .  A
O974       Ni981   1.946       .  S
O975        C985   1.274       .  A
O975      Ni1197   1.882       .  S
O976        C986   1.276       .  A
O977        C986   1.287       .  A
O978        C985   1.288       .  A
O979        C984   1.276       .  A
O980        C983   1.276       .  A
O980       Ni982   1.888   1_556  S
Ni982      O1193   1.946   1_554  S
Ni982      O1087   1.892       .  S
Ni982     Ni1089   2.385       .  S
C983        C989   1.481       .  S
C984       C1021   1.483       .  S
C985       C1032   1.480       .  S
C986        C998   1.483       .  S
C987        C988   1.392       .  A
C987        C992   1.398       .  A
C987       C1078   1.488       .  S
C988        C989   1.409       .  A
C988        H993   1.085       .  S
C989        C990   1.411       .  A
C990        C991   1.413       .  A
C990        H994   1.083       .  S
C991       C1048   1.487       .  S
C991        C992   1.416       .  A
C992        H995   1.083       .  S
C996        C997   1.398       .  A
C996       C1001   1.393       .  A
C996       C1077   1.489       .  S
C997        C998   1.414       .  A
C997       H1002   1.083       .  S
C998        C999   1.412       .  A
C999       C1000   1.408       .  A
C999       H1003   1.083       .  S
C1000      C1049   1.480       .  S
C1000      C1001   1.411       .  A
C1001      H1004   1.084       .  S
O1005      C1015   1.287       .  A
O1005     Ni1013   1.948       .  S
O1006      C1016   1.289       .  A
O1006     Ni1661   1.953       .  S
O1007      C1017   1.276       .  A
O1007     Ni1013   1.889       .  S
O1008      C1018   1.276       .  A
O1008     Ni1661   1.886       .  S
O1009      C1018   1.286       .  A
O1009     Ni1662   1.942       .  S
O1010      C1017   1.287       .  A
O1010     Ni1014   1.946       .  S
O1011      C1016   1.275       .  A
O1011     Ni1662   1.888       .  S
O1012      C1015   1.275       .  A
O1012     Ni1014   1.885       .  S
Ni1013    Ni1014   2.386       .  S
C1015      C1064   1.479       .  S
C1016      C1023   1.484       .  S
C1017      C1030   1.482       .  S
C1018      C1053   1.477       .  S
C1019      C1020   1.398       .  A
C1019      C1024   1.396       .  A
C1019      C1074   1.491       .  S
C1020      C1021   1.413       .  A
C1020      H1025   1.083       .  S
C1021      C1022   1.412       .  A
C1022      C1023   1.409       .  A
C1022      H1026   1.083       .  S
C1023      C1024   1.412       .  A
C1024      H1027   1.084       .  S
C1028      C1029   1.398       .  A
C1028      C1033   1.394       .  A
C1028      C1073   1.489       .  S
C1029      C1030   1.414       .  A
C1029      H1034   1.083       .  S
C1030      C1031   1.410       .  A
C1031      C1032   1.408       .  A
C1031      H1035   1.083       .  S
C1032      C1033   1.411       .  A
C1033      H1036   1.084       .  S
O1037      C1047   1.288       .  A
O1037     Ni1045   1.950       .  S
O1038      C1048   1.288       .  A
O1038     Ni1045   1.952       .  S
O1039      C1049   1.274       .  A
O1039     Ni1045   1.880       .  S
O1040      C1050   1.274       .  A
O1040     Ni1045   1.879       .  S
O1041      C1050   1.288       .  A
O1041     Ni1046   1.951       .  S
O1042      C1049   1.288       .  A
O1042     Ni1046   1.953       .  S
O1043      C1048   1.275       .  A
O1043     Ni1046   1.887       .  S
O1044      C1047   1.274       .  A
O1044     Ni1046   1.878       .  S
Ni1045    Ni1046   2.384       .  S
C1047      C1055   1.482       .  S
C1050      C1062   1.483       .  S
C1051      C1052   1.394       .  A
C1051      C1056   1.391       .  A
C1051      C1069   1.484       .  S
C1052      C1053   1.412       .  A
C1052      H1057   1.084       .  S
C1053      C1054   1.410       .  A
C1054      C1055   1.409       .  A
C1054      H1058   1.083       .  S
C1055      C1056   1.412       .  A
C1056      H1059   1.084       .  S
C1060      C1061   1.389       .  A
C1060      C1065   1.393       .  A
C1060      C1070   1.481       .  S
C1061      C1062   1.411       .  A
C1061      H1066   1.084       .  S
C1062      C1063   1.411       .  A
C1063      C1064   1.412       .  A
C1063      H1067   1.083       .  S
C1064      C1065   1.412       .  A
C1065      H1068   1.084       .  S
C1069      H1071   1.087       .  S
C1070      H1072   1.087       .  S
C1070      C1285   1.343       .  D
C1073      H1075   1.087       .  S
C1073      C1074   1.348       .  D
C1074      H1076   1.087       .  S
C1077      H1079   1.087       .  S
C1077      C1726   1.346       .  D
C1078      H1080   1.087       .  S
O1081      C1091   1.287       .  A
O1082      C1092   1.288       .  A
O1082     Ni1089   1.948       .  S
O1083      C1093   1.274       .  A
O1084      C1094   1.274       .  A
O1084     Ni1197   1.880       .  S
O1085      C1094   1.288       .  A
O1086      C1093   1.288       .  A
O1086     Ni1198   1.945   1_565  S
O1087      C1092   1.276       .  A
O1088      C1091   1.275       .  A
O1088     Ni1090   1.882   1_565  S
Ni1089     O1192   1.889   1_554  S
Ni1090     O1194   1.947   1_545  S
C1091      C1097   1.477       .  S
C1092      C1129   1.482       .  S
C1093      C1140   1.476       .  S
C1094      C1106   1.480       .  S
C1095      C1096   1.390       .  A
C1095      C1100   1.397       .  A
C1095      C1186   1.485       .  S
C1096      C1097   1.408       .  A
C1096      H1101   1.085       .  S
C1097      C1098   1.408       .  A
C1098      C1099   1.411       .  A
C1098      H1102   1.083       .  S
C1099      C1156   1.482       .  S
C1099      C1100   1.415       .  A
C1100      H1103   1.083       .  S
C1104      C1105   1.397       .  A
C1104      C1109   1.392       .  A
C1104      C1185   1.488       .  S
C1105      C1106   1.414       .  A
C1105      H1110   1.083       .  S
C1106      C1107   1.409       .  A
C1107      C1108   1.407       .  A
C1107      H1111   1.083       .  S
C1108      C1157   1.476       .  S
C1108      C1109   1.411       .  A
C1109      H1112   1.084       .  S
O1113      C1123   1.289       .  A
O1113     Ni1121   1.950       .  S
O1114      C1124   1.289       .  A
O1114     Ni1769   1.954       .  S
O1115      C1125   1.273       .  A
O1115     Ni1121   1.875       .  S
O1116      C1126   1.275       .  A
O1116     Ni1769   1.885       .  S
O1117      C1126   1.288       .  A
O1117     Ni1770   1.948       .  S
O1118      C1125   1.289       .  A
O1118     Ni1122   1.951       .  S
O1119      C1124   1.274       .  A
O1119     Ni1770   1.880       .  S
O1120      C1123   1.272       .  A
O1120     Ni1122   1.877       .  S
Ni1121    Ni1122   2.384       .  S
C1123      C1172   1.476       .  S
C1124      C1131   1.485       .  S
C1125      C1138   1.481       .  S
C1126      C1161   1.480       .  S
C1127      C1128   1.398       .  A
C1127      C1132   1.393       .  A
C1127      C1182   1.488       .  S
C1128      C1129   1.415       .  A
C1128      H1133   1.084       .  S
C1129      C1130   1.411       .  A
C1130      C1131   1.409       .  A
C1130      H1134   1.083       .  S
C1131      C1132   1.412       .  A
C1132      H1135   1.084       .  S
C1136      C1137   1.393       .  A
C1136      C1141   1.398       .  A
C1136      C1181   1.490       .  S
C1137      C1138   1.414       .  A
C1137      H1142   1.084       .  S
C1138      C1139   1.406       .  A
C1139      C1140   1.407       .  A
C1139      H1143   1.083       .  S
C1140      C1141   1.415       .  A
C1141      H1144   1.084       .  S
O1145      C1155   1.288       .  A
O1145     Ni1153   1.951       .  S
O1146      C1156   1.288       .  A
O1146     Ni1153   1.950       .  S
O1147      C1157   1.273       .  A
O1147     Ni1153   1.877       .  S
O1148      C1158   1.273       .  A
O1148     Ni1153   1.874       .  S
O1149      C1158   1.288       .  A
O1149     Ni1154   1.947       .  S
O1150      C1157   1.288       .  A
O1150     Ni1154   1.950       .  S
O1151      C1156   1.274       .  A
O1151     Ni1154   1.883       .  S
O1152      C1155   1.274       .  A
O1152     Ni1154   1.878       .  S
Ni1153    Ni1154   2.385       .  S
C1155      C1163   1.483       .  S
C1158      C1170   1.478       .  S
C1159      C1160   1.395       .  A
C1159      C1164   1.390       .  A
C1159      C1177   1.484       .  S
C1160      C1161   1.413       .  A
C1160      H1165   1.084       .  S
C1161      C1162   1.411       .  A
C1162      C1163   1.410       .  A
C1162      H1166   1.083       .  S
C1163      C1164   1.412       .  A
C1164      H1167   1.084       .  S
C1168      C1169   1.390       .  A
C1168      C1173   1.395       .  A
C1168      C1178   1.483       .  S
C1169      C1170   1.411       .  A
C1169      H1174   1.084       .  S
C1170      C1171   1.408       .  A
C1171      C1172   1.408       .  A
C1171      H1175   1.083       .  S
C1172      C1173   1.414       .  A
C1173      H1176   1.084       .  S
C1177      H1179   1.087       .  S
C1178      H1180   1.087   1_565  S
C1181      H1183   1.087       .  S
C1181      C1182   1.345       .  D
C1182      H1184   1.087       .  S
C1185      H1187   1.087       .  S
C1185      C1834   1.346       .  D
C1186      H1188   1.087       .  S
O1189      C1199   1.287       .  A
O1190      C1200   1.289       .  A
O1190     Ni1197   1.952       .  S
O1191      C1201   1.275       .  A
O1192      C1202   1.276       .  A
O1193      C1202   1.287       .  A
O1194      C1201   1.287       .  A
O1195      C1200   1.274       .  A
O1196      C1199   1.275       .  A
O1196     Ni1198   1.883   1_566  S
C1199      C1205   1.480       .  S
C1200      C1237   1.482       .  S
C1201      C1248   1.479       .  S
C1202      C1214   1.484       .  S
C1203      C1204   1.392       .  A
C1203      C1208   1.397       .  A
C1203      C1294   1.488       .  S
C1204      C1205   1.410       .  A
C1204      H1209   1.085       .  S
C1205      C1206   1.410       .  A
C1206      C1207   1.412       .  A
C1206      H1210   1.083       .  S
C1207      C1264   1.484       .  S
C1207      C1208   1.416       .  A
C1208      H1211   1.083       .  S
C1212      C1213   1.397       .  A
C1212      C1217   1.393       .  A
C1212      C1293   1.489       .  S
C1213      C1214   1.414       .  A
C1213      H1218   1.083       .  S
C1214      C1215   1.412       .  A
C1215      C1216   1.409       .  A
C1215      H1219   1.083       .  S
C1216      C1265   1.481       .  S
C1216      C1217   1.411       .  A
C1217      H1220   1.084       .  S
O1221      C1231   1.286       .  A
O1221     Ni1229   1.943       .  S
O1222      C1232   1.287       .  A
O1222     Ni1877   1.946       .  S
O1223      C1233   1.276       .  A
O1223     Ni1229   1.888       .  S
O1224      C1234   1.276       .  A
O1224     Ni1877   1.889       .  S
O1225      C1234   1.286       .  A
O1225     Ni1878   1.942       .  S
O1226      C1233   1.287       .  A
O1226     Ni1230   1.943       .  S
O1227      C1232   1.275       .  A
O1227     Ni1878   1.884       .  S
O1228      C1231   1.275       .  A
O1228     Ni1230   1.883       .  S
Ni1229    Ni1230   2.387       .  S
C1231      C1280   1.475       .  S
C1232      C1239   1.477       .  S
C1233      C1246   1.481       .  S
C1234      C1269   1.478       .  S
C1235      C1236   1.397       .  A
C1235      C1240   1.392       .  A
C1235      C1290   1.487       .  S
C1236      C1237   1.415       .  A
C1236      H1241   1.083       .  S
C1237      C1238   1.410       .  A
C1238      C1239   1.409       .  A
C1238      H1242   1.083       .  S
C1239      C1240   1.409       .  A
C1240      H1243   1.085       .  S
C1244      C1245   1.398       .  A
C1244      C1249   1.394       .  A
C1244      C1289   1.487       .  S
C1245      C1246   1.413       .  A
C1245      H1250   1.083       .  S
C1246      C1247   1.410       .  A
C1247      C1248   1.407       .  A
C1247      H1251   1.083       .  S
C1248      C1249   1.410       .  A
C1249      H1252   1.084       .  S
O1253      C1263   1.288       .  A
O1253     Ni1261   1.951       .  S
O1254      C1264   1.288       .  A
O1254     Ni1261   1.950       .  S
O1255      C1265   1.275       .  A
O1255     Ni1261   1.882       .  S
O1256      C1266   1.274       .  A
O1256     Ni1261   1.881       .  S
O1257      C1266   1.288       .  A
O1257     Ni1262   1.950       .  S
O1258      C1265   1.288       .  A
O1258     Ni1262   1.952       .  S
O1259      C1264   1.275       .  A
O1259     Ni1262   1.886       .  S
O1260      C1263   1.275       .  A
O1260     Ni1262   1.880       .  S
Ni1261    Ni1262   2.384       .  S
C1263      C1271   1.484       .  S
C1266      C1278   1.482       .  S
C1267      C1268   1.394       .  A
C1267      C1272   1.391       .  A
C1267      C1285   1.482       .  S
C1268      C1269   1.411       .  A
C1268      H1273   1.084       .  S
C1269      C1270   1.411       .  A
C1270      C1271   1.410       .  A
C1270      H1274   1.083       .  S
C1271      C1272   1.412       .  A
C1272      H1275   1.084       .  S
C1276      C1277   1.397       .  A
C1276      C1281   1.391       .  A
C1276      C1286   1.486       .  S
C1277      C1278   1.414       .  A
C1277      H1282   1.083       .  S
C1278      C1279   1.410       .  A
C1279      C1280   1.409       .  A
C1279      H1283   1.083       .  S
C1280      C1281   1.408       .  A
C1281      H1284   1.085       .  S
C1285      H1287   1.087       .  S
C1286      H1288   1.087       .  S
C1289      H1291   1.087       .  S
C1289      C1290   1.346       .  D
C1290      H1292   1.087       .  S
C1293      H1295   1.087       .  S
C1293      C1942   1.347       .  D
C1294      H1296   1.087       .  S
O1297      C1307   1.288       .  A
O1297     Ni1629   1.948       .  S
O1298      C1308   1.287       .  A
O1298     Ni1305   1.946       .  S
O1299      C1309   1.273       .  A
O1299     Ni1521   1.881       .  S
O1300      C1310   1.276       .  A
O1300     Ni1413   1.885       .  S
O1301      C1310   1.286       .  A
O1301     Ni1738   1.943       .  S
O1302      C1309   1.288       .  A
O1302     Ni1414   1.948       .  S
O1303      C1308   1.276       .  A
O1303     Ni1846   1.889       .  S
O1304      C1307   1.274       .  A
O1304     Ni1306   1.879       .  S
Ni1305     O1837   1.948   1_544  S
Ni1305     O1731   1.882   1_545  S
Ni1305     O1408   1.883   1_554  S
Ni1305    Ni1846   2.387       .  S
Ni1306     O1517   1.946       .  S
Ni1306     O1410   1.948       .  S
Ni1306     O1627   1.885       .  S
Ni1306    Ni1629   2.386       .  S
C1307      C1313   1.476       .  S
C1308      C1345   1.480       .  S
C1309      C1356   1.476       .  S
C1310      C1322   1.480       .  S
C1311      C1312   1.392       .  A
C1311      C1316   1.397       .  A
C1311      C1402   1.488       .  S
C1312      C1313   1.411       .  A
C1312      H1317   1.084       .  S
C1313      C1314   1.406       .  A
C1314      C1315   1.409       .  A
C1314      H1318   1.083       .  S
C1315      C1372   1.479       .  S
C1315      C1316   1.416       .  A
C1316      H1319   1.083       .  S
C1320      C1321   1.396       .  A
C1320      C1325   1.393       .  A
C1320      C1401   1.487       .  S
C1321      C1322   1.412       .  A
C1321      H1326   1.083       .  S
C1322      C1323   1.411       .  A
C1323      C1324   1.408       .  A
C1323      H1327   1.083       .  S
C1324      C1373   1.479       .  S
C1324      C1325   1.411       .  A
C1325      H1328   1.084       .  S
O1329      C1339   1.288       .  A
O1329     Ni1337   1.948       .  S
O1330      C1340   1.288       .  A
O1331      C1341   1.274       .  A
O1331     Ni1337   1.878       .  S
O1332      C1342   1.274       .  A
O1333      C1342   1.288       .  A
O1334      C1341   1.288       .  A
O1334     Ni1338   1.946       .  S
O1335      C1340   1.274       .  A
O1336      C1339   1.274       .  A
O1336     Ni1338   1.881       .  S
Ni1337    Ni1338   2.386       .  S
C1339      C1388   1.477       .  S
C1340      C1347   1.483       .  S
C1341      C1354   1.478       .  S
C1342      C1377   1.477       .  S
C1343      C1344   1.395       .  A
C1343      C1348   1.389       .  A
C1343      C1398   1.481       .  S
C1344      C1345   1.413       .  A
C1344      H1349   1.084       .  S
C1345      C1346   1.412       .  A
C1346      C1347   1.410       .  A
C1346      H1350   1.083       .  S
C1347      C1348   1.411       .  A
C1348      H1351   1.084       .  S
C1352      C1353   1.392       .  A
C1352      C1357   1.397       .  A
C1352      C1397   1.487       .  S
C1353      C1354   1.411       .  A
C1353      H1358   1.084       .  S
C1354      C1355   1.407       .  A
C1355      C1356   1.407       .  A
C1355      H1359   1.083       .  S
C1356      C1357   1.413       .  A
C1357      H1360   1.083       .  S
O1361      C1371   1.288       .  A
O1361     Ni1369   1.947       .  S
O1362      C1372   1.288       .  A
O1362     Ni1369   1.948       .  S
O1363      C1373   1.274       .  A
O1363     Ni1369   1.880       .  S
O1364      C1374   1.274       .  A
O1364     Ni1369   1.874       .  S
O1365      C1374   1.288       .  A
O1365     Ni1370   1.949       .  S
O1366      C1373   1.288       .  A
O1366     Ni1370   1.952       .  S
O1367      C1372   1.274       .  A
O1367     Ni1370   1.880       .  S
O1368      C1371   1.274       .  A
O1368     Ni1370   1.875       .  S
Ni1369    Ni1370   2.385       .  S
C1371      C1379   1.479       .  S
C1374      C1386   1.480       .  S
C1375      C1376   1.394       .  A
C1375      C1380   1.389       .  A
C1375      C1393   1.482       .  S
C1376      C1377   1.413       .  A
C1376      H1381   1.084       .  S
C1377      C1378   1.409       .  A
C1378      C1379   1.409       .  A
C1378      H1382   1.083       .  S
C1379      C1380   1.411       .  A
C1380      H1383   1.084       .  S
C1384      C1385   1.389       .  A
C1384      C1389   1.394       .  A
C1384      C1394   1.484       .  S
C1385      C1386   1.412       .  A
C1385      H1390   1.084       .  S
C1386      C1387   1.409       .  A
C1387      C1388   1.409       .  A
C1387      H1391   1.083       .  S
C1388      C1389   1.413       .  A
C1389      H1392   1.084       .  S
C1393      H1395   1.087       .  S
C1393      C1826   1.342   1_545  D
C1394      H1396   1.087       .  S
C1394      C1609   1.342       .  D
C1397      H1399   1.087       .  S
C1397      C1398   1.343       .  D
C1398      H1400   1.086       .  S
C1401      H1403   1.087   1_655  S
C1402      H1404   1.087       .  S
O1405      C1415   1.287       .  A
O1405     Ni1521   1.948   1_556  S
O1406      C1416   1.287       .  A
O1406     Ni1413   1.946       .  S
O1407      C1417   1.274       .  A
O1407     Ni1629   1.879       .  S
O1408      C1418   1.275       .  A
O1409      C1418   1.287       .  A
O1409     Ni1846   1.944   1_556  S
O1410      C1417   1.288       .  A
O1411      C1416   1.276       .  A
O1411     Ni1738   1.890       .  S
O1412      C1415   1.275       .  A
O1412     Ni1414   1.882   1_556  S
Ni1413     O1729   1.948   1_545  S
Ni1413     O1839   1.884   1_545  S
Ni1413    Ni1738   2.386       .  S
Ni1414     O1625   1.949   1_554  S
Ni1414     O1519   1.887       .  S
Ni1414    Ni1521   2.385       .  S
C1415      C1421   1.477       .  S
C1416      C1453   1.484       .  S
C1417      C1464   1.477       .  S
C1418      C1430   1.480       .  S
C1419      C1420   1.391       .  A
C1419      C1424   1.397       .  A
C1419      C1510   1.484       .  S
C1420      C1421   1.408       .  A
C1420      H1425   1.085       .  S
C1421      C1422   1.408       .  A
C1422      C1423   1.412       .  A
C1422      H1426   1.083       .  S
C1423      C1480   1.482       .  S
C1423      C1424   1.414       .  A
C1424      H1427   1.083       .  S
C1428      C1429   1.397       .  A
C1428      C1433   1.392       .  A
C1428      C1509   1.487       .  S
C1429      C1430   1.414       .  A
C1429      H1434   1.083       .  S
C1430      C1431   1.409       .  A
C1431      C1432   1.406       .  A
C1431      H1435   1.083       .  S
C1432      C1481   1.474       .  S
C1432      C1433   1.409       .  A
C1433      H1436   1.085       .  S
O1437      C1447   1.288       .  A
O1437     Ni1445   1.951       .  S
O1438      C1448   1.288       .  A
O1439      C1449   1.275       .  A
O1439     Ni1445   1.885       .  S
O1440      C1450   1.275       .  A
O1441      C1450   1.287       .  A
O1442      C1449   1.287       .  A
O1442     Ni1446   1.944       .  S
O1443      C1448   1.275       .  A
O1444      C1447   1.275       .  A
O1444     Ni1446   1.884       .  S
Ni1445    Ni1446   2.386       .  S
C1447      C1496   1.480       .  S
C1448      C1455   1.481       .  S
C1449      C1462   1.479       .  S
C1450      C1485   1.481       .  S
C1451      C1452   1.397       .  A
C1451      C1456   1.394       .  A
C1451      C1506   1.488       .  S
C1452      C1453   1.413       .  A
C1452      H1457   1.083       .  S
C1453      C1454   1.412       .  A
C1454      C1455   1.410       .  A
C1454      H1458   1.083       .  S
C1455      C1456   1.411       .  A
C1456      H1459   1.084       .  S
C1460      C1461   1.397       .  A
C1460      C1465   1.393       .  A
C1460      C1505   1.487       .  S
C1461      C1462   1.414       .  A
C1461      H1466   1.083       .  S
C1462      C1463   1.409       .  A
C1463      C1464   1.406       .  A
C1463      H1467   1.083       .  S
C1464      C1465   1.411       .  A
C1465      H1468   1.084       .  S
O1469      C1479   1.286       .  A
O1469     Ni1477   1.945       .  S
O1470      C1480   1.287       .  A
O1470     Ni1477   1.944       .  S
O1471      C1481   1.275       .  A
O1471     Ni1477   1.882       .  S
O1472      C1482   1.276       .  A
O1472     Ni1477   1.888       .  S
O1473      C1482   1.287       .  A
O1473     Ni1478   1.944       .  S
O1474      C1481   1.286       .  A
O1474     Ni1478   1.945       .  S
O1475      C1480   1.276       .  A
O1475     Ni1478   1.888       .  S
O1476      C1479   1.275       .  A
O1476     Ni1478   1.881       .  S
Ni1477    Ni1478   2.386       .  S
C1479      C1487   1.475       .  S
C1482      C1494   1.482       .  S
C1483      C1484   1.398       .  A
C1483      C1488   1.391       .  A
C1483      C1501   1.485       .  S
C1484      C1485   1.415       .  A
C1484      H1489   1.083       .  S
C1485      C1486   1.410       .  A
C1486      C1487   1.406       .  A
C1486      H1490   1.083       .  S
C1487      C1488   1.408       .  A
C1488      H1491   1.085       .  S
C1492      C1493   1.397       .  A
C1492      C1497   1.393       .  A
C1492      C1502   1.487       .  S
C1493      C1494   1.413       .  A
C1493      H1498   1.083       .  S
C1494      C1495   1.412       .  A
C1495      C1496   1.408       .  A
C1495      H1499   1.083       .  S
C1496      C1497   1.410       .  A
C1497      H1500   1.085       .  S
C1501      H1503   1.087       .  S
C1501      C1934   1.345   1_545  D
C1502      H1504   1.087       .  S
C1502      C1717   1.347       .  D
C1505      H1507   1.087       .  S
C1505      C1506   1.346       .  D
C1506      H1508   1.087       .  S
C1509      H1511   1.087   1_655  S
C1510      H1512   1.087       .  S
O1513      C1523   1.287       .  A
O1513     Ni1845   1.947       .  S
O1514      C1524   1.289       .  A
O1514     Ni1521   1.948       .  S
O1515      C1525   1.274       .  A
O1515     Ni1737   1.882       .  S
O1516      C1526   1.275       .  A
O1516     Ni1629   1.882       .  S
O1517      C1526   1.287       .  A
O1518      C1525   1.288       .  A
O1518     Ni1630   1.948   1_554  S
O1519      C1524   1.274       .  A
O1520      C1523   1.275       .  A
O1520     Ni1522   1.881       .  S
Ni1521     O1624   1.881   1_554  S
Ni1522     O1733   1.945       .  S
Ni1522     O1626   1.947       .  S
Ni1522     O1843   1.886       .  S
Ni1522    Ni1845   2.386       .  S
C1523      C1529   1.478       .  S
C1524      C1561   1.482       .  S
C1525      C1572   1.477       .  S
C1526      C1538   1.480       .  S
C1527      C1528   1.390       .  A
C1527      C1532   1.397       .  A
C1527      C1618   1.485       .  S
C1528      C1529   1.409       .  A
C1528      H1533   1.085       .  S
C1529      C1530   1.409       .  A
C1530      C1531   1.412       .  A
C1530      H1534   1.083       .  S
C1531      C1588   1.483       .  S
C1531      C1532   1.416       .  A
C1532      H1535   1.083       .  S
C1536      C1537   1.397       .  A
C1536      C1541   1.392       .  A
C1536      C1617   1.487       .  S
C1537      C1538   1.414       .  A
C1537      H1542   1.083       .  S
C1538      C1539   1.410       .  A
C1539      C1540   1.407       .  A
C1539      H1543   1.083       .  S
C1540      C1589   1.476       .  S
C1540      C1541   1.410       .  A
C1541      H1544   1.084       .  S
O1545      C1555   1.289       .  A
O1545     Ni1553   1.952       .  S
O1546      C1556   1.287       .  A
O1547      C1557   1.274       .  A
O1547     Ni1553   1.885       .  S
O1548      C1558   1.276       .  A
O1549      C1558   1.287       .  A
O1550      C1557   1.288       .  A
O1550     Ni1554   1.948       .  S
O1551      C1556   1.274       .  A
O1552      C1555   1.273       .  A
O1552     Ni1554   1.880       .  S
Ni1553    Ni1554   2.385       .  S
C1555      C1604   1.479       .  S
C1556      C1563   1.476       .  S
C1557      C1570   1.482       .  S
C1558      C1593   1.480       .  S
C1559      C1560   1.401       .  A
C1559      C1564   1.394       .  A
C1559      C1614   1.491       .  S
C1560      C1561   1.417       .  A
C1560      H1565   1.083       .  S
C1561      C1562   1.409       .  A
C1562      C1563   1.405       .  A
C1562      H1566   1.083       .  S
C1563      C1564   1.409       .  A
C1564      H1567   1.085       .  S
C1568      C1569   1.400       .  A
C1568      C1573   1.395       .  A
C1568      C1613   1.492       .  S
C1569      C1570   1.416       .  A
C1569      H1574   1.083       .  S
C1570      C1571   1.409       .  A
C1571      C1572   1.406       .  A
C1571      H1575   1.083       .  S
C1572      C1573   1.410       .  A
C1573      H1576   1.085       .  S
O1577      C1587   1.288       .  A
O1577     Ni1585   1.951       .  S
O1578      C1588   1.288       .  A
O1578     Ni1585   1.950       .  S
O1579      C1589   1.273       .  A
O1579     Ni1585   1.877       .  S
O1580      C1590   1.274       .  A
O1580     Ni1585   1.875       .  S
O1581      C1590   1.287       .  A
O1581     Ni1586   1.948       .  S
O1582      C1589   1.288       .  A
O1582     Ni1586   1.950       .  S
O1583      C1588   1.275       .  A
O1583     Ni1586   1.884       .  S
O1584      C1587   1.275       .  A
O1584     Ni1586   1.879       .  S
Ni1585    Ni1586   2.384       .  S
C1587      C1595   1.484       .  S
C1590      C1602   1.480       .  S
C1591      C1592   1.394       .  A
C1591      C1596   1.389       .  A
C1591      C1609   1.482       .  S
C1592      C1593   1.413       .  A
C1592      H1597   1.084       .  S
C1593      C1594   1.412       .  A
C1594      C1595   1.411       .  A
C1594      H1598   1.083       .  S
C1595      C1596   1.412       .  A
C1596      H1599   1.084       .  S
C1600      C1601   1.389       .  A
C1600      C1605   1.394       .  A
C1600      C1610   1.483       .  S
C1601      C1602   1.411       .  A
C1601      H1606   1.084       .  S
C1602      C1603   1.410       .  A
C1603      C1604   1.410       .  A
C1603      H1607   1.083       .  S
C1604      C1605   1.415       .  A
C1605      H1608   1.084       .  S
C1609      H1611   1.087       .  S
C1610      H1612   1.087       .  S
C1610      C1825   1.343       .  D
C1613      H1615   1.087       .  S
C1613      C1614   1.347       .  D
C1614      H1616   1.087       .  S
C1617      H1619   1.087   1_655  S
C1618      H1620   1.087       .  S
O1621      C1631   1.288       .  A
O1621     Ni1737   1.951   1_556  S
O1622      C1632   1.288       .  A
O1622     Ni1629   1.947       .  S
O1623      C1633   1.274       .  A
O1623     Ni1845   1.882       .  S
O1624      C1634   1.275       .  A
O1625      C1634   1.287       .  A
O1626      C1633   1.287       .  A
O1627      C1632   1.275       .  A
O1628      C1631   1.275       .  A
O1628     Ni1630   1.884       .  S
Ni1630     O1841   1.945       .  S
Ni1630     O1735   1.889   1_556  S
Ni1630    Ni1737   2.385   1_556  S
C1631      C1637   1.481       .  S
C1632      C1669   1.481       .  S
C1633      C1680   1.477       .  S
C1634      C1646   1.485       .  S
C1635      C1636   1.392       .  A
C1635      C1640   1.398       .  A
C1635      C1726   1.488       .  S
C1636      C1637   1.410       .  A
C1636      H1641   1.085       .  S
C1637      C1638   1.409       .  A
C1638      C1639   1.413       .  A
C1638      H1642   1.083       .  S
C1639      C1696   1.484       .  S
C1639      C1640   1.415       .  A
C1640      H1643   1.083       .  S
C1644      C1645   1.390       .  A
C1644      C1649   1.396       .  A
C1644      C1725   1.485       .  S
C1645      C1646   1.412       .  A
C1645      H1650   1.084       .  S
C1646      C1647   1.411       .  A
C1647      C1648   1.411       .  A
C1647      H1651   1.083       .  S
C1648      C1697   1.480       .  S
C1648      C1649   1.413       .  A
C1649      H1652   1.084       .  S
O1653      C1663   1.288       .  A
O1653     Ni1661   1.951       .  S
O1654      C1664   1.288       .  A
O1655      C1665   1.275       .  A
O1655     Ni1661   1.887       .  S
O1656      C1666   1.274       .  A
O1657      C1666   1.288       .  A
O1658      C1665   1.287       .  A
O1658     Ni1662   1.943       .  S
O1659      C1664   1.275       .  A
O1660      C1663   1.276       .  A
O1660     Ni1662   1.888       .  S
Ni1661    Ni1662   2.386       .  S
C1663      C1712   1.484       .  S
C1664      C1671   1.479       .  S
C1665      C1678   1.479       .  S
C1666      C1701   1.480       .  S
C1667      C1668   1.398       .  A
C1667      C1672   1.393       .  A
C1667      C1722   1.489       .  S
C1668      C1669   1.414       .  A
C1668      H1673   1.083       .  S
C1669      C1670   1.410       .  A
C1670      C1671   1.408       .  A
C1670      H1674   1.083       .  S
C1671      C1672   1.410       .  A
C1672      H1675   1.084       .  S
C1676      C1677   1.398       .  A
C1676      C1681   1.393       .  A
C1676      C1721   1.488       .  S
C1677      C1678   1.414       .  A
C1677      H1682   1.083       .  S
C1678      C1679   1.409       .  A
C1679      C1680   1.406       .  A
C1679      H1683   1.083       .  S
C1680      C1681   1.410       .  A
C1681      H1684   1.085       .  S
O1685      C1695   1.286       .  A
O1685     Ni1693   1.943       .  S
O1686      C1696   1.287       .  A
O1686     Ni1693   1.946       .  S
O1687      C1697   1.276       .  A
O1687     Ni1693   1.888       .  S
O1688      C1698   1.277       .  A
O1688     Ni1693   1.888       .  S
O1689      C1698   1.287       .  A
O1689     Ni1694   1.948       .  S
O1690      C1697   1.287       .  A
O1690     Ni1694   1.947       .  S
O1691      C1696   1.276       .  A
O1691     Ni1694   1.890       .  S
O1692      C1695   1.275       .  A
O1692     Ni1694   1.884       .  S
Ni1693    Ni1694   2.385       .  S
C1695      C1703   1.474       .  S
C1698      C1710   1.486       .  S
C1699      C1700   1.397       .  A
C1699      C1704   1.392       .  A
C1699      C1717   1.487       .  S
C1700      C1701   1.415       .  A
C1700      H1705   1.083       .  S
C1701      C1702   1.408       .  A
C1702      C1703   1.407       .  A
C1702      H1706   1.083       .  S
C1703      C1704   1.409       .  A
C1704      H1707   1.085       .  S
C1708      C1709   1.390       .  A
C1708      C1713   1.394       .  A
C1708      C1718   1.482       .  S
C1709      C1710   1.411       .  A
C1709      H1714   1.084       .  S
C1710      C1711   1.414       .  A
C1711      C1712   1.413       .  A
C1711      H1715   1.083       .  S
C1712      C1713   1.413       .  A
C1713      H1716   1.084       .  S
C1717      H1719   1.087       .  S
C1718      H1720   1.087       .  S
C1718      C1933   1.344       .  D
C1721      H1723   1.087       .  S
C1721      C1722   1.346       .  D
C1722      H1724   1.087       .  S
C1725      H1727   1.087   1_655  S
C1726      H1728   1.087       .  S
O1729      C1739   1.287       .  A
O1730      C1740   1.289       .  A
O1730     Ni1737   1.950       .  S
O1731      C1741   1.275       .  A
O1732      C1742   1.275       .  A
O1732     Ni1845   1.885       .  S
O1733      C1742   1.287       .  A
O1734      C1741   1.287       .  A
O1734     Ni1846   1.943   1_565  S
O1735      C1740   1.275       .  A
O1736      C1739   1.276       .  A
O1736     Ni1738   1.885   1_565  S
Ni1737     O1840   1.885   1_554  S
Ni1738     O1842   1.945   1_545  S
C1739      C1745   1.480       .  S
C1740      C1777   1.486       .  S
C1741      C1788   1.474       .  S
C1742      C1754   1.481       .  S
C1743      C1744   1.391       .  A
C1743      C1748   1.397       .  A
C1743      C1834   1.486       .  S
C1744      C1745   1.409       .  A
C1744      H1749   1.085       .  S
C1745      C1746   1.410       .  A
C1746      C1747   1.413       .  A
C1746      H1750   1.083       .  S
C1747      C1804   1.485       .  S
C1747      C1748   1.415       .  A
C1748      H1751   1.083       .  S
C1752      C1753   1.396       .  A
C1752      C1757   1.392       .  A
C1752      C1833   1.487       .  S
C1753      C1754   1.414       .  A
C1753      H1758   1.083       .  S
C1754      C1755   1.411       .  A
C1755      C1756   1.408       .  A
C1755      H1759   1.083       .  S
C1756      C1805   1.478       .  S
C1756      C1757   1.411       .  A
C1757      H1760   1.084       .  S
O1761      C1771   1.289       .  A
O1761     Ni1769   1.951       .  S
O1762      C1772   1.287       .  A
O1763      C1773   1.274       .  A
O1763     Ni1769   1.883       .  S
O1764      C1774   1.275       .  A
O1765      C1774   1.288       .  A
O1766      C1773   1.289       .  A
O1766     Ni1770   1.947       .  S
O1767      C1772   1.275       .  A
O1768      C1771   1.274       .  A
O1768     Ni1770   1.881       .  S
Ni1769    Ni1770   2.385       .  S
C1771      C1820   1.479       .  S
C1772      C1779   1.477       .  S
C1773      C1786   1.481       .  S
C1774      C1809   1.479       .  S
C1775      C1776   1.400       .  A
C1775      C1780   1.392       .  A
C1775      C1830   1.488       .  S
C1776      C1777   1.417       .  A
C1776      H1781   1.083       .  S
C1777      C1778   1.412       .  A
C1778      C1779   1.408       .  A
C1778      H1782   1.083       .  S
C1779      C1780   1.407       .  A
C1780      H1783   1.085       .  S
C1784      C1785   1.400       .  A
C1784      C1789   1.393       .  A
C1784      C1829   1.490       .  S
C1785      C1786   1.416       .  A
C1785      H1790   1.083       .  S
C1786      C1787   1.408       .  A
C1787      C1788   1.405       .  A
C1787      H1791   1.083       .  S
C1788      C1789   1.409       .  A
C1789      H1792   1.085       .  S
O1793      C1803   1.288       .  A
O1793     Ni1801   1.949       .  S
O1794      C1804   1.288       .  A
O1794     Ni1801   1.950       .  S
O1795      C1805   1.274       .  A
O1795     Ni1801   1.879       .  S
O1796      C1806   1.274       .  A
O1796     Ni1801   1.877       .  S
O1797      C1806   1.287       .  A
O1797     Ni1802   1.947       .  S
O1798      C1805   1.288       .  A
O1798     Ni1802   1.951       .  S
O1799      C1804   1.276       .  A
O1799     Ni1802   1.888       .  S
O1800      C1803   1.275       .  A
O1800     Ni1802   1.881       .  S
Ni1801    Ni1802   2.384       .  S
C1803      C1811   1.483       .  S
C1806      C1818   1.480       .  S
C1807      C1808   1.395       .  A
C1807      C1812   1.391       .  A
C1807      C1825   1.485       .  S
C1808      C1809   1.413       .  A
C1808      H1813   1.084       .  S
C1809      C1810   1.410       .  A
C1810      C1811   1.410       .  A
C1810      H1814   1.083       .  S
C1811      C1812   1.412       .  A
C1812      H1815   1.084       .  S
C1816      C1817   1.390       .  A
C1816      C1821   1.395       .  A
C1816      C1826   1.484       .  S
C1817      C1818   1.411       .  A
C1817      H1822   1.084       .  S
C1818      C1819   1.409       .  A
C1819      C1820   1.409       .  A
C1819      H1823   1.083       .  S
C1820      C1821   1.414       .  A
C1821      H1824   1.084       .  S
C1825      H1827   1.087       .  S
C1826      H1828   1.087   1_565  S
C1829      H1831   1.087       .  S
C1829      C1830   1.345       .  D
C1830      H1832   1.087       .  S
C1833      H1835   1.087       .  S
C1834      H1836   1.087       .  S
O1837      C1847   1.287       .  A
O1838      C1848   1.287       .  A
O1838     Ni1845   1.945       .  S
O1839      C1849   1.275       .  A
O1840      C1850   1.275       .  A
O1841      C1850   1.287       .  A
O1842      C1849   1.286       .  A
O1843      C1848   1.275       .  A
O1844      C1847   1.276       .  A
O1844     Ni1846   1.885   1_566  S
C1847      C1853   1.479       .  S
C1848      C1885   1.481       .  S
C1849      C1896   1.477       .  S
C1850      C1862   1.481       .  S
C1851      C1852   1.393       .  A
C1851      C1856   1.397       .  A
C1851      C1942   1.489       .  S
C1852      C1853   1.410       .  A
C1852      H1857   1.085       .  S
C1853      C1854   1.409       .  A
C1854      C1855   1.411       .  A
C1854      H1858   1.083       .  S
C1855      C1912   1.484       .  S
C1855      C1856   1.416       .  A
C1856      H1859   1.083       .  S
C1860      C1861   1.397       .  A
C1860      C1865   1.394       .  A
C1860      C1941   1.489       .  S
C1861      C1862   1.414       .  A
C1861      H1866   1.083       .  S
C1862      C1863   1.410       .  A
C1863      C1864   1.407       .  A
C1863      H1867   1.083       .  S
C1864      C1913   1.479       .  S
C1864      C1865   1.411       .  A
C1865      H1868   1.084       .  S
O1869      C1879   1.286       .  A
O1869     Ni1877   1.943       .  S
O1870      C1880   1.287       .  A
O1871      C1881   1.276       .  A
O1871     Ni1877   1.890       .  S
O1872      C1882   1.275       .  A
O1873      C1882   1.286       .  A
O1874      C1881   1.287       .  A
O1874     Ni1878   1.942       .  S
O1875      C1880   1.275       .  A
O1876      C1879   1.276       .  A
O1876     Ni1878   1.885       .  S
Ni1877    Ni1878   2.387       .  S
C1879      C1928   1.475       .  S
C1880      C1887   1.476       .  S
C1881      C1894   1.481       .  S
C1882      C1917   1.477       .  S
C1883      C1884   1.398       .  A
C1883      C1888   1.393       .  A
C1883      C1938   1.486       .  S
C1884      C1885   1.414       .  A
C1884      H1889   1.083       .  S
C1885      C1886   1.409       .  A
C1886      C1887   1.407       .  A
C1886      H1890   1.083       .  S
C1887      C1888   1.408       .  A
C1888      H1891   1.085       .  S
C1892      C1893   1.398       .  A
C1892      C1897   1.392       .  A
C1892      C1937   1.485       .  S
C1893      C1894   1.414       .  A
C1893      H1898   1.083       .  S
C1894      C1895   1.410       .  A
C1895      C1896   1.407       .  A
C1895      H1899   1.083       .  S
C1896      C1897   1.409       .  A
C1897      H1900   1.085       .  S
O1901      C1911   1.289       .  A
O1901     Ni1909   1.951       .  S
O1902      C1912   1.289       .  A
O1902     Ni1909   1.951       .  S
O1903      C1913   1.274       .  A
O1903     Ni1909   1.880       .  S
O1904      C1914   1.274       .  A
O1904     Ni1909   1.880       .  S
O1905      C1914   1.288       .  A
O1905     Ni1910   1.950       .  S
O1906      C1913   1.288       .  A
O1906     Ni1910   1.952       .  S
O1907      C1912   1.274       .  A
O1907     Ni1910   1.883       .  S
O1908      C1911   1.273       .  A
O1908     Ni1910   1.877       .  S
Ni1909    Ni1910   2.384       .  S
C1911      C1919   1.481       .  S
C1914      C1926   1.482       .  S
C1915      C1916   1.395       .  A
C1915      C1920   1.392       .  A
C1915      C1933   1.484       .  S
C1916      C1917   1.412       .  A
C1916      H1921   1.084       .  S
C1917      C1918   1.409       .  A
C1918      C1919   1.408       .  A
C1918      H1922   1.083       .  S
C1919      C1920   1.413       .  A
C1920      H1923   1.084       .  S
C1924      C1925   1.397       .  A
C1924      C1929   1.392       .  A
C1924      C1934   1.487       .  S
C1925      C1926   1.414       .  A
C1925      H1930   1.083       .  S
C1926      C1927   1.409       .  A
C1927      C1928   1.408       .  A
C1927      H1931   1.083       .  S
C1928      C1929   1.409       .  A
C1929      H1932   1.085       .  S
C1933      H1935   1.087       .  S
C1934      H1936   1.087       .  S
C1937      H1939   1.087       .  S
C1937      C1938   1.345       .  D
C1938      H1940   1.087       .  S
C1941      H1943   1.087   1_655  S
C1942      H1944   1.087       .  S
