geometry optimzed in LAMMPS
_audit_creation_date              2020-12-01 
_audit_creation_method            'lammps2cif' 
_symmetry_space_group_name_H-M    'P1' 
_symmetry_Int_Tables_number       1 
_symmetry_cell_setting            triclinic 
loop_ 
_symmetry_equiv_pos_as_xyz 
  x,y,z 
_cell_length_a                    37.76346238 
_cell_length_b                    37.29539220987926 
_cell_length_c                    28.10356806272827 
_cell_angle_alpha                 91.02864174054834 
_cell_angle_beta                  90.14477432283633 
_cell_angle_gamma                 121.18434460938387 
loop_ 
_atom_site_label 
_atom_site_type_symbol 
_atom_site_fract_x 
_atom_site_fract_y 
_atom_site_fract_z 
_atom_site_charge 
C1          C  0.02495990  0.98507379  0.24668214     0.79300
N2          N  0.98304600  0.96520280  0.24890664    -0.79000
C3          C  0.96412126  0.98774060  0.24948289     0.81700
N4          N  0.98732165  0.03018516  0.24825564    -0.79000
C5          C  0.02924789  0.05033809  0.24639918     0.81800
N6          N  0.04794800  0.02755378  0.24515861    -0.80700
C7          C  0.37841343  0.70637691  0.30067720     0.79300
N8          N  0.35766270  0.72652359  0.30879722    -0.79000
C9          C  0.31587313  0.70502042  0.31224497     0.81700
N10         N  0.29456230  0.66258104  0.30750332    -0.79000
C11         C  0.31475884  0.64179540  0.29979793     0.81800
N12         N  0.35667967  0.66378908  0.29600140    -0.80700
C13         C  0.76202864  0.64963637  0.04925670     0.79300
N14         N  0.75230663  0.67570100  0.07185958    -0.79000
C15         C  0.73422599  0.66635285  0.11508517     0.81700
N16         N  0.72470478  0.62959162  0.13554077    -0.79000
C17         C  0.73335306  0.60250251  0.11262723     0.81800
N18         N  0.75218363  0.61287131  0.06958708    -0.80700
O19         O  0.11026328  0.88115698  0.30313136    -0.81800
O20         O  0.20477716  0.79292684  0.30879387    -0.66500
O21         O  0.18247760  0.87997861  0.29616333    -1.13100
C22         C  0.16023804  0.83218564  0.13840814     1.05100
O23         O  0.25272940  0.82582266  0.25420170    -0.79700
O24         O  0.25685230  0.89260957  0.21088391    -0.67300
Ni25       Ni  0.15479889  0.89077197  0.34513370     1.34900
C26         C  0.24533660  0.91833092  0.20222754     0.83800
O27         O  0.20729268  0.84794043  0.37158677    -0.80300
O28         O  0.19782051  0.90074917  0.39030492    -0.90500
C29         C  0.23614380  0.79839009  0.28630391     0.83400
O30         O  0.12042306  0.83505497  0.36740798    -0.68700
O31         O  0.19637897  0.83824383  0.14647564    -0.88000
C32         C  0.11249829  0.79960532  0.35127791     0.84200
C33         C  0.21200612  0.87712757  0.39986835     1.05800
H34         H  0.15646735  0.79565837  0.23559302     0.37600
O35         O  0.17904139  0.82429702  0.24032030    -1.10700
O36         O  0.20761024  0.90770389  0.20527652    -0.67300
Ni37       Ni  0.15920994  0.86100987  0.23315969     1.26300
O38         O  0.13568459  0.79561392  0.32135930    -0.67600
O39         O  0.13931935  0.83870814  0.16983087    -0.79900
C40         C  0.11287073  0.89705845  0.26261918     0.83600
O41         O  0.13621259  0.89617262  0.23068293    -0.67000
Ni42       Ni  0.22364397  0.83303695  0.20189365     1.27400
Ni43       Ni  0.19264772  0.83591083  0.30555709     1.26100
H44         H  0.20910170  0.90533010  0.29359038     0.38100
C45         C  0.37201545  0.12645289  0.05511917     0.79300
N46         N  0.34577344  0.08865184  0.07466685    -0.79000
C47         C  0.35885131  0.07500429  0.11168135     0.81700
N48         N  0.39822062  0.09920674  0.12900675    -0.79000
C49         C  0.42480817  0.13680273  0.10952190     0.81800
N50         N  0.41119183  0.15002793  0.07292046    -0.80700
C51         C  0.89397967  0.65755210  0.46133691     0.79300
N52         N  0.87005838  0.61925636  0.44010221    -0.79000
C53         C  0.88412900  0.60704953  0.40244838     0.81700
N54         N  0.92327720  0.63310825  0.38668801    -0.79000
C55         C  0.94804612  0.67142854  0.40804169     0.81800
N56         N  0.93302310  0.68314900  0.44540551    -0.80700
O57         O  0.70676956  0.29059668  0.31118366    -0.81800
O58         O  0.71445566  0.43279961  0.20253499    -0.66500
O59         O  0.69158901  0.35401199  0.29944642    -1.13100
C60         C  0.57667226  0.26445539  0.19924349     1.05100
O61         O  0.64980445  0.41869950  0.20508014    -0.79700
O62         O  0.59242081  0.35538750  0.25928767    -0.67300
Ni63       Ni  0.73528163  0.34915666  0.32635608     1.34900
C64         C  0.58661604  0.33275378  0.29516417     0.83800
O65         O  0.75127193  0.43889575  0.28558553    -0.80300
O66         O  0.76640912  0.40789582  0.34321530    -0.90500
C67         C  0.68773730  0.44295918  0.19477452     0.83400
O68         O  0.76790352  0.35801204  0.27120933    -0.68700
O69         O  0.57938911  0.29882253  0.18781463    -0.88000
C70         C  0.76560396  0.36779789  0.22888859     0.84200
C71         C  0.77112813  0.44050966  0.32319559     1.05800
H72         H  0.66793486  0.34078892  0.19040728     0.37600
O73         O  0.65863291  0.34843797  0.21867373    -1.10700
O74         O  0.60581068  0.31325744  0.30055080    -0.67300
Ni75       Ni  0.64664996  0.30696143  0.26536891     1.26300
O76         O  0.74142310  0.38032490  0.21609944    -0.67600
O77         O  0.60187201  0.26236553  0.22810258    -0.79900
C78         C  0.67125949  0.26533557  0.32730540     0.83600
O79         O  0.64014154  0.26726549  0.31329769    -0.67000
Ni80       Ni  0.61624047  0.35806891  0.19852961     1.27400
Ni81       Ni  0.70522482  0.39387902  0.25100562     1.26100
H82         H  0.68006439  0.36184986  0.32541610     0.38100
O83         O  0.56443029  0.77002539  0.25351336    -0.81800
O84         O  0.76055764  0.88855427  0.23724711    -0.66500
O85         O  0.64765136  0.81522717  0.26982199    -1.13100
C86         C  0.66216014  0.93690363  0.34060833     1.05100
O87         O  0.77470761  0.91036664  0.31227915    -0.79700
O88         O  0.70947100  0.87641949  0.37169525    -0.67300
Ni89       Ni  0.61194042  0.77685082  0.22138737     1.34900
C90         C  0.67139411  0.85331527  0.38122191     0.83800
O91         O  0.70973024  0.80568950  0.22937592    -0.80300
O92         O  0.65392973  0.77563643  0.18359062    -0.90500
C93         C  0.78666571  0.90753805  0.27075941     0.83400
O94         O  0.61884214  0.82346200  0.18816656    -0.68700
O95         O  0.69640152  0.94087576  0.35391413    -0.88000
C96         C  0.65301554  0.85363570  0.17328853     0.84200
C97         C  0.68784850  0.77959907  0.19694377     1.05800
H98         H  0.70341811  0.91505598  0.25355396     0.37600
O99         O  0.69820170  0.89472144  0.27758132    -1.10700
O100        O  0.64304947  0.84901242  0.35329087    -0.67300
Ni101      Ni  0.64048825  0.86174580  0.28817339     1.26300
O102        O  0.68831243  0.86167254  0.18959542    -0.67600
O103        O  0.63811173  0.90991313  0.30911550    -0.79900
C104        C  0.55541853  0.79171083  0.28049878     0.83600
O105        O  0.58168693  0.82851692  0.29550460    -0.67000
Ni106      Ni  0.73331326  0.92340488  0.33090749     1.27400
Ni107      Ni  0.70389619  0.85081386  0.25208796     1.26100
H108        H  0.64664062  0.79938195  0.29715007     0.38100
C109        C  0.71179426  0.12474580  0.50133851     0.79300
N110        N  0.69511291  0.08559236  0.48192858    -0.79000
C111        C  0.67000406  0.07371461  0.44273864     0.81700
N112        N  0.66220819  0.10175880  0.42264229    -0.79000
C113        C  0.67784250  0.14090210  0.44150777     0.81800
N114        N  0.70320776  0.15242625  0.48082099    -0.80700
C115        C  0.38862090  0.26076465  0.46080072     0.79300
N116        N  0.36026250  0.26416034  0.43427365    -0.79000
C117        C  0.36927690  0.28079064  0.39008809     0.81700
N118        N  0.40760194  0.29436226  0.37243939    -0.79000
C119        C  0.43671363  0.29155645  0.39802207     0.81800
N120        N  0.42679953  0.27431439  0.44202442    -0.80700
O121        O  0.23424838  0.44453237  0.31296000    -0.81800
O122        O  0.13941671  0.25355767  0.28147670    -0.66500
O123        O  0.21309669  0.37062076  0.26321190    -1.13100
C124        C  0.09026824  0.36117434  0.20433030     1.05100
O125        O  0.12086520  0.24941797  0.20628118    -0.79700
O126        O  0.13986484  0.31488148  0.15097999    -0.67300
Ni127      Ni  0.25314497  0.40548137  0.31010014     1.34900
C128        C  0.16989593  0.35207222  0.14597433     0.83800
O129        O  0.22141362  0.30411405  0.29774015    -0.80300
O130        O  0.27544035  0.36937058  0.31106362    -0.90500
C131        C  0.11973658  0.23164175  0.24483187     0.83400
O132        O  0.22113514  0.38008389  0.36487750    -0.68700
O133        O  0.07962691  0.32358024  0.19294889    -0.88000
C134        C  0.18536366  0.34857968  0.37155834     0.84200
C135        C  0.25947361  0.32970366  0.30867412     1.05800
H136        H  0.11686784  0.31777020  0.27825432     0.37600
O137        O  0.13552061  0.32207230  0.25254803    -1.10700
O138        O  0.18336778  0.37946767  0.17936519    -0.67300
Ni139      Ni  0.16994582  0.38089665  0.24497160     1.26300
O140        O  0.16461176  0.32086135  0.33934625    -0.67600
O141        O  0.12432363  0.38741941  0.22574522    -0.79900
C142        C  0.22857243  0.46188878  0.27773715     0.83600
O143        O  0.20668132  0.44041873  0.24202366    -0.67000
Ni144      Ni  0.10171998  0.28792593  0.20093409     1.27400
Ni145      Ni  0.17769224  0.31238940  0.27504557     1.26100
H146        H  0.22876262  0.37247746  0.23526648     0.38100
C147        C  0.88371200  0.34579995  0.12108389     0.79300
N148        N  0.87394091  0.32113132  0.08096482    -0.79000
C149        C  0.90167825  0.31222812  0.06127045     0.81700
N150        N  0.93934705  0.32826339  0.08280791    -0.79000
C151        C  0.94955055  0.35275085  0.12288905     0.81800
N152        N  0.92134393  0.36067325  0.14233344    -0.80700
C153        C  0.99218526  0.05406985  0.75461961     0.79300
N154        N  0.96999621  0.01161585  0.74994230    -0.79000
C155        C  0.98930880  0.98962536  0.74454165     0.81700
N156        N  0.03141866  0.01050131  0.74546944    -0.79000
C157        C  0.05397476  0.05307143  0.75027031     0.81800
N158        N  0.03421646  0.07479251  0.75435202    -0.80700
O159        O  0.24688784  0.12949172  0.71367018    -0.81800
O160        O  0.43697300  0.21597134  0.73584053    -0.66500
O161        O  0.32116204  0.14325370  0.75430299    -1.13100
C162        C  0.33273974  0.26598158  0.82498232     1.05100
O163        O  0.44352987  0.23909822  0.80948374    -0.79700
O164        O  0.38341525  0.22410346  0.86907070    -0.67300
Ni165      Ni  0.28554103  0.11075022  0.70293248     1.34900
C166        C  0.35130468  0.18868280  0.87625356     0.83800
O167        O  0.38457805  0.13309359  0.72087242    -0.80300
O168        O  0.32052618  0.08811666  0.69066728    -0.90500
C169        C  0.45957576  0.23901103  0.77013835     0.83400
O170        O  0.31025106  0.15023346  0.65255825    -0.68700
O171        O  0.37177627  0.28167786  0.82537634    -0.88000
C172        C  0.34709263  0.18024084  0.64642593     0.84200
C173        C  0.35777058  0.09848257  0.70079418     1.05800
H174        H  0.37100724  0.23851726  0.74154428     0.37600
O175        O  0.36987257  0.22145497  0.76764769    -1.10700
O176        O  0.32248743  0.16961912  0.84499838    -0.67300
Ni177      Ni  0.31298909  0.18511910  0.78235473     1.26300
O178        O  0.37493003  0.19292127  0.67867527    -0.67600
O179        O  0.30661848  0.22876071  0.81028927    -0.79900
C180        C  0.23191074  0.13140216  0.75362997     0.83600
O181        O  0.25499205  0.14674399  0.79051136    -0.67000
Ni182      Ni  0.40639693  0.25909189  0.81575177     1.27400
Ni183      Ni  0.37885205  0.17847333  0.74338891     1.26100
H184        H  0.31782392  0.12359973  0.77832588     0.38100
C185        C  0.24775688  0.39123388  0.96096803     0.79300
N186        N  0.25434661  0.42585457  0.93746099    -0.79000
C187        C  0.27329271  0.43521496  0.89440865     0.81700
N188        N  0.28625154  0.41024019  0.87566394    -0.79000
C189        C  0.28042448  0.37620401  0.89899795     0.81800
N190        N  0.26128008  0.36704802  0.94149016    -0.80700
C191        C  0.12484112  0.38061079  0.54436336     0.79300
N192        N  0.15117749  0.41880229  0.56520481    -0.79000
C193        C  0.14036328  0.43042307  0.60619933     0.81700
N194        N  0.10355883  0.40374190  0.62601124    -0.79000
C195        C  0.07714267  0.36547606  0.60624420     0.81800
N196        N  0.08795984  0.35422104  0.56505610    -0.80700
O197        O  0.89039321  0.14191199  0.82074349    -0.81800
O198        O  0.77761362  0.21592563  0.81251331    -0.66500
O199        O  0.82195850  0.14580020  0.79262908    -1.13100
C200        C  0.92436891  0.26275745  0.70678828     1.05100
O201        O  0.78862370  0.23283610  0.73749189    -0.79700
O202        O  0.83272498  0.22088159  0.67325475    -0.67300
Ni203      Ni  0.83633576  0.12489968  0.84551449     1.34900
C204        C  0.82050369  0.18238394  0.66790477     0.83800
O205        O  0.75224386  0.13602443  0.83502190    -0.80300
O206        O  0.78220192  0.10463423  0.87189753    -0.90500
C207        C  0.77515748  0.23557202  0.77765968     0.83400
O208        O  0.86057431  0.17371385  0.88708558    -0.68700
O209        O  0.90395494  0.28061474  0.71562526    -0.88000
C210        C  0.84844891  0.19931889  0.89451809     0.84200
C211        C  0.75115771  0.10852759  0.86244595     1.05800
H212        H  0.86834952  0.24006668  0.79786630     0.37600
O213        O  0.84884178  0.22150387  0.77373973    -1.10700
O214        O  0.82887829  0.16249389  0.69839613    -0.67300
Ni215      Ni  0.86633025  0.18429851  0.75417921     1.26300
O216        O  0.82427272  0.20249877  0.86597382    -0.67600
O217        O  0.91115294  0.22439741  0.71564469    -0.79900
C218        C  0.89821269  0.13561332  0.77825623     0.83600
O219        O  0.88415715  0.14542559  0.74262956    -0.67000
Ni220      Ni  0.84639770  0.25642565  0.72783468     1.27400
Ni221      Ni  0.79942296  0.18005090  0.80453684     1.26100
H222        H  0.80242419  0.12194938  0.77322271     0.38100
C223        C  0.05226640  0.67749847  0.91948501     0.79300
N224        N  0.07653682  0.66254451  0.90508127    -0.79000
C225        C  0.11362248  0.67570211  0.92684649     0.81700
N226        N  0.12653501  0.70480135  0.96318603    -0.79000
C227        C  0.10179005  0.71918915  0.97853068     0.81800
N228        N  0.06504767  0.70557985  0.95628654    -0.80700
O229        O  0.40235348  0.65572305  0.71970103    -0.81800
O230        O  0.24881868  0.63547977  0.82193253    -0.66500
O231        O  0.33505519  0.66720842  0.73160087    -1.13100
C232        C  0.41759505  0.77159063  0.84685144     1.05100
O233        O  0.26704465  0.70204616  0.83399913    -0.79700
O234        O  0.33023558  0.76280701  0.78743983    -0.67300
Ni235      Ni  0.34505173  0.62753901  0.70078354     1.34900
C236        C  0.35119373  0.76869338  0.75017595     0.83800
O237        O  0.25052559  0.60528303  0.73389581    -0.80300
O238        O  0.28913722  0.59676202  0.67861142    -0.90500
C239        C  0.24152644  0.66306281  0.83815707     0.83400
O240        O  0.33131707  0.58961434  0.75190835    -0.68700
O241        O  0.38418388  0.76982198  0.85893739    -0.88000
C242        C  0.31322434  0.58461788  0.79144379     0.84200
C243        C  0.25456761  0.58757176  0.69648881     1.05800
H244        H  0.33914818  0.67842152  0.84260973     0.37600
O245        O  0.33391076  0.69161635  0.81648302    -1.10700
O246        O  0.37246594  0.75169390  0.74249636    -0.67300
Ni247      Ni  0.37771262  0.70823350  0.77240822     1.26300
O248        O  0.29948098  0.60760237  0.80587891    -0.67600
O249        O  0.41927472  0.74783432  0.81518179    -0.79900
C250        C  0.42758735  0.69423034  0.71229288     0.83600
O251        O  0.41981232  0.72152696  0.72726709    -0.67000
Ni252      Ni  0.32591446  0.73391116  0.84432787     1.27400
Ni253      Ni  0.29128992  0.64894088  0.77603830     1.26100
H254        H  0.32964924  0.68123257  0.70655201     0.38100
O255        O  0.90487972  0.79769771  0.79701540    -0.81800
O256        O  0.81321469  0.60049027  0.77731257    -0.66500
O257        O  0.88504800  0.71792616  0.76161719    -1.13100
C258        C  0.76193524  0.70707428  0.70205702     1.05100
O259        O  0.78583442  0.59183253  0.70568778    -0.79700
O260        O  0.79819507  0.65411710  0.64833027    -0.67300
Ni261      Ni  0.91138701  0.75181429  0.81699186     1.34900
C262        C  0.83448922  0.68440977  0.64033035     0.83800
O263        O  0.89444118  0.65390500  0.79315071    -0.80300
O264        O  0.92321696  0.71092499  0.84167103    -0.90500
C265        C  0.79191666  0.57663867  0.74281994     0.83400
O266        O  0.86194690  0.72984371  0.85356079    -0.68700
O267        O  0.74533354  0.66733964  0.70161195    -0.88000
C268        C  0.83807658  0.69150315  0.86336306     0.84200
C269        C  0.91910831  0.67635654  0.82674267     1.05800
H270        H  0.79177035  0.66886013  0.77728967     0.37600
O271        O  0.80732644  0.66866671  0.75019255    -1.10700
O272        O  0.85610712  0.71244211  0.67186857    -0.67300
Ni273      Ni  0.84354293  0.72561982  0.73420265     1.26300
O274        O  0.83553511  0.66245665  0.83664097    -0.67600
O275        O  0.80053269  0.73270862  0.70886449    -0.79900
C276        C  0.90135908  0.80930414  0.75574529     0.83600
O277        O  0.88217171  0.78313907  0.72195331    -0.67000
Ni278      Ni  0.76724385  0.63122872  0.70480622     1.27400
Ni279      Ni  0.84981298  0.65937584  0.77131796     1.26100
H280        H  0.90584187  0.72257906  0.73850171     0.38100
C281        C  0.63280085  0.77658242  0.56562275     0.79300
N282        N  0.66205888  0.77585300  0.59284163    -0.79000
C283        C  0.65357774  0.76068115  0.63749013     0.81700
N284        N  0.61512035  0.74598850  0.65505714    -0.79000
C285        C  0.58567320  0.74699194  0.62843678     0.81800
N286        N  0.59468326  0.76241749  0.58395479    -0.80700
C287        C  0.61563665  0.91560086  0.00794938     0.79300
N288        N  0.58096942  0.88548572  0.98481476    -0.79000
C289        C  0.56856767  0.89424189  0.94350812     0.81700
N290        N  0.59038656  0.93360850  0.92637313    -0.79000
C291        C  0.62477174  0.96399040  0.94960629     0.81800
N292        N  0.63771450  0.95451513  0.98995810    -0.80700
C293        C  0.31398572  0.90719223  0.56827182     0.79300
N294        N  0.31925613  0.87774584  0.58969206    -0.79000
C295        C  0.34330716  0.88793752  0.62980262     0.81700
N296        N  0.36074154  0.92727820  0.64915735    -0.79000
C297        C  0.35580298  0.95673508  0.62767886     0.81800
N298        N  0.33212855  0.94633457  0.58771026    -0.80700
C299        C  0.63703103  0.33391143  0.76669317     0.79300
N300        N  0.65969535  0.37591402  0.75997316    -0.79000
C301        C  0.70166836  0.39675776  0.76310193     0.81700
N302        N  0.72065110  0.37545998  0.77405311    -0.79000
C303        C  0.69815138  0.33359835  0.78158997     0.81800
N304        N  0.65639991  0.31298544  0.77749503    -0.80700
C305        C  0.77279942  0.53041743  0.74562314    -0.07100
C306        C  0.73984328  0.50477727  0.71405007    -0.18200
C307        C  0.71726559  0.46117980  0.71762154     0.10100
C308        C  0.72678117  0.44218598  0.75447642    -0.07000
C309        C  0.76091942  0.46730763  0.78453122    -0.18200
C310        C  0.78421500  0.51092434  0.78033950     0.10200
S311        S  0.67747026  0.43170680  0.67321889    -0.33200
S312        S  0.82797239  0.53926687  0.82034072    -0.33200
H313        H  0.85474196  0.56487317  0.78464917     0.28200
H314        H  0.68440108  0.39811881  0.67030202     0.28200
H315        H  0.73098582  0.51872369  0.68653232     0.18800
H316        H  0.76916124  0.45289126  0.81214226     0.18800
C317        C  0.73515632  0.72435978  0.69327523    -0.07100
C318        C  0.75177725  0.76271673  0.67002086    -0.18200
C319        C  0.72655470  0.77786251  0.65567232     0.10100
C320        C  0.68339146  0.75336834  0.66299363    -0.07000
C321        C  0.66756735  0.71714240  0.69013531    -0.18200
C322        C  0.69297141  0.70285393  0.70607540     0.10200
S323        S  0.75142585  0.82862732  0.62873027    -0.33200
S324        S  0.66943633  0.65717845  0.74274533    -0.33200
H325        H  0.70433124  0.67145855  0.77272068     0.28200
H326        H  0.72251202  0.83895428  0.64495676     0.28200
H327        H  0.78445379  0.78058870  0.66186354     0.18800
H328        H  0.63478971  0.69868529  0.69750899     0.18800
C329        C  0.46695279  0.70717741  0.68811813    -0.07100
C330        C  0.48431126  0.68193388  0.69232523    -0.18200
C331        C  0.52221192  0.69328702  0.67170101     0.10100
C332        C  0.54409580  0.73143661  0.64743586    -0.07000
C333        C  0.52613849  0.75588426  0.64158069    -0.18200
C334        C  0.48764587  0.74393704  0.66092384     0.10200
S335        S  0.54000508  0.65693353  0.67597951    -0.33200
S336        S  0.46628424  0.77624229  0.64798655    -0.33200
H337        H  0.42567709  0.74228750  0.64013931     0.28200
H338        H  0.55812389  0.66509769  0.63073614     0.28200
H339        H  0.46828489  0.65308298  0.71187854     0.18800
H340        H  0.54231836  0.78466255  0.62188876     0.18800
C341        C  0.53082109  0.86204260  0.91793114    -0.07100
C342        C  0.50479892  0.87444530  0.89802256    -0.18200
C343        C  0.46823483  0.84577314  0.87397070     0.10100
C344        C  0.45658798  0.80326235  0.87038320    -0.07000
C345        C  0.48289571  0.79080365  0.88934513    -0.18200
C346        C  0.52004648  0.81973965  0.91259742     0.10200
S347        S  0.43867279  0.86577026  0.84706588    -0.33200
S348        S  0.55294001  0.80102049  0.93253146    -0.33200
H349        H  0.59023863  0.83748753  0.92066350     0.28200
H350        H  0.42596795  0.83875227  0.80693042     0.28200
H351        H  0.51302169  0.90688318  0.90115123     0.18800
H352        H  0.47450249  0.75832573  0.88584953     0.18800
C353        C  0.34749074  0.85565729  0.65497953    -0.07100
C354        C  0.31182764  0.81630416  0.66199959    -0.18200
C355        C  0.31275763  0.78671228  0.69118347     0.10100
C356        C  0.35014318  0.79638946  0.71403644    -0.07000
C357        C  0.38630508  0.83473839  0.70506473    -0.18200
C358        C  0.38542286  0.86434420  0.67578065     0.10200
S359        S  0.26498676  0.73744449  0.69870422    -0.33200
S360        S  0.43376430  0.91243515  0.66613473    -0.33200
H361        H  0.42412059  0.91734116  0.61921474     0.28200
H362        H  0.28318751  0.71332623  0.70654732     0.28200
H363        H  0.28263022  0.80908177  0.64606336     0.18800
H364        H  0.41524730  0.84211542  0.72182386     0.18800
C365        C  0.20217929  0.65143655  0.86111784    -0.07100
C366        C  0.20265826  0.65623317  0.91079918    -0.18200
C367        C  0.17225656  0.66067796  0.93398859     0.10100
C368        C  0.14137363  0.66200102  0.90678018    -0.07000
C369        C  0.13901531  0.65330617  0.85748365    -0.18200
C370        C  0.16891391  0.64806468  0.83451848     0.10200
S371        S  0.17503434  0.66497547  0.99802228    -0.33200
S372        S  0.16554287  0.64194045  0.77055613    -0.33200
H373        H  0.18657629  0.62006222  0.76743152     0.28200
H374        H  0.13188076  0.64372053  0.00399941     0.28200
H375        H  0.22819523  0.65882085  0.93146112     0.18800
H376        H  0.11522294  0.65315903  0.83589119     0.18800
C377        C  0.01331791  0.66603521  0.89425675    -0.07100
C378        C  0.98111586  0.66381391  0.92145321    -0.18200
C379        C  0.94705485  0.66213846  0.89979376     0.10100
C380        C  0.94516310  0.66316340  0.84983434    -0.07000
C381        C  0.97490544  0.66106400  0.82237545    -0.18200
C382        C  0.00929852  0.66280289  0.84397076     0.10200
S383        S  0.90794896  0.66098794  0.93760960    -0.33200
S384        S  0.04975453  0.66641977  0.80646821    -0.33200
H385        H  0.02882172  0.65923844  0.76262958     0.28200
H386        H  0.87536185  0.63978869  0.90423823     0.28200
H387        H  0.98334156  0.66522279  0.95998339     0.18800
H388        H  0.97316829  0.66212395  0.78399979     0.18800
C389        C  0.71930335  0.30999632  0.78687692    -0.07100
C390        C  0.75568510  0.32382627  0.76115895    -0.18200
C391        C  0.77532925  0.30104710  0.75975026     0.10100
C392        C  0.75760732  0.26242780  0.78316529    -0.07000
C393        C  0.72221921  0.24919579  0.81072945    -0.18200
C394        C  0.70309226  0.27283004  0.81328994     0.10200
S395        S  0.82367103  0.32381567  0.72849718    -0.33200
S396        S  0.65895534  0.25434571  0.85147087    -0.33200
H397        H  0.66766159  0.29456947  0.86540524     0.28200
H398        H  0.84329768  0.31278560  0.76291706     0.28200
H399        H  0.76878656  0.35243297  0.74117653     0.18800
H400        H  0.70911136  0.22009528  0.82976858     0.18800
C401        C  0.71182547  0.07765212  0.88334020    -0.07100
C402        C  0.70842663  0.07725934  0.93294596    -0.18200
C403        C  0.67727125  0.04201594  0.95566330     0.10100
C404        C  0.65032138  0.00554462  0.92824301    -0.07000
C405        C  0.65165280  0.00753420  0.87837315    -0.18200
C406        C  0.68191287  0.04324757  0.85571607     0.10200
S407        S  0.67418141  0.04546889  0.01945560    -0.33200
S408        S  0.68447157  0.04071383  0.79181751    -0.33200
H409        H  0.69372817  0.08190754  0.78507802     0.28200
H410        H  0.63094648  0.01839977  0.02088746     0.28200
H411        H  0.73125514  0.10383788  0.95420635     0.18800
H412        H  0.63093124  0.98013142  0.85671892     0.18800
C413        C  0.03782851  0.33697764  0.63133146    -0.07100
C414        C  0.02792265  0.35386289  0.67085257    -0.18200
C415        C  0.99261751  0.32969916  0.69755113     0.10100
C416        C  0.96478337  0.28768212  0.68381157    -0.07000
C417        C  0.97428155  0.27021111  0.64489268    -0.18200
C418        C  0.01052492  0.29401912  0.61889387     0.10200
S419        S  0.98575798  0.35404330  0.74995018    -0.33200
S420        S  0.01949165  0.26709264  0.57098536    -0.33200
H421        H  0.05868640  0.27767329  0.58878747     0.28200
H422        H  0.96783161  0.31759279  0.77722809     0.28200
H423        H  0.04813128  0.38628477  0.68202454     0.18800
H424        H  0.95297975  0.23782792  0.63423089     0.18800
C425        C  0.21826364  0.55076175  0.67468889    -0.07100
C426        C  0.19946989  0.51436807  0.70161764    -0.18200
C427        C  0.17506148  0.47473761  0.67984875     0.10100
C428        C  0.16794127  0.47144598  0.63005930    -0.07000
C429        C  0.18575707  0.50800895  0.60327794    -0.18200
C430        C  0.21077541  0.54754031  0.62508779     0.10200
S431        S  0.15672007  0.42858383  0.71544211    -0.33200
S432        S  0.23321668  0.59284492  0.58790060    -0.33200
H433        H  0.23814820  0.62156625  0.62427876     0.28200
H434        H  0.18126894  0.44903479  0.75614190     0.28200
H435        H  0.20671198  0.51681043  0.73930790     0.18800
H436        H  0.18005635  0.50577897  0.56521773     0.18800
C437        C  0.28113247  0.47283321  0.86826140    -0.07100
C438        C  0.29312859  0.51032890  0.89370126    -0.18200
C439        C  0.30515852  0.54777202  0.87006235     0.10100
C440        C  0.30490218  0.54789379  0.81971580    -0.07000
C441        C  0.29256870  0.51031185  0.79452338    -0.18200
C442        C  0.28002368  0.47297074  0.81790813     0.10200
S443        S  0.32234049  0.59453028  0.90604689    -0.33200
S444        S  0.26045321  0.42623879  0.78101317    -0.33200
H445        H  0.22884010  0.40026308  0.81240547     0.28200
H446        H  0.35330610  0.62136495  0.87451446     0.28200
H447        H  0.29454244  0.51084398  0.93224346     0.18800
H448        H  0.29085408  0.50952674  0.75596565     0.18800
C449        C  0.50467785  0.26525465  0.76524025    -0.07100
C450        C  0.52570880  0.24866457  0.74140479    -0.18200
C451        C  0.56888314  0.27116437  0.73949796     0.10100
C452        C  0.59165119  0.31099488  0.76245618    -0.07000
C453        C  0.57050663  0.32842730  0.78422268    -0.18200
C454        C  0.52735942  0.30622692  0.78550169     0.10200
S455        S  0.59285634  0.24753432  0.70659891    -0.33200
S456        S  0.50321363  0.33226766  0.81279460    -0.33200
H457        H  0.46988623  0.31596963  0.78009577     0.28200
H458        H  0.62553648  0.28551748  0.68942158     0.28200
H459        H  0.50845586  0.21766218  0.72492468     0.18800
H460        H  0.58772037  0.35923363  0.80119252     0.18800
C461        C  0.36940971  0.06757777  0.68905471    -0.07100
C462        C  0.38723629  0.06969944  0.64482435    -0.18200
C463        C  0.38726205  0.03475335  0.62563907     0.10100
C464        C  0.36916504  0.99731507  0.65143552    -0.07000
C465        C  0.35563728  0.99695546  0.69790043    -0.18200
C466        C  0.35552252  0.03173435  0.71694902     0.10200
S467        S  0.40853980  0.03737323  0.56743215    -0.33200
S468        S  0.33367666  0.02717310  0.77511741    -0.33200
H469        H  0.35713065  0.07020455  0.78687272     0.28200
H470        H  0.42039201  0.07911799  0.55851277     0.28200
H471        H  0.39829708  0.09758066  0.62398933     0.18800
H472        H  0.34186048  0.96833400  0.71793948     0.18800
C473        C  0.31772085  0.29306545  0.84284344    -0.07100
C474        C  0.34206356  0.33628128  0.83479985    -0.18200
C475        C  0.33089699  0.36425468  0.85269636     0.10100
C476        C  0.29378071  0.34851532  0.87826785    -0.07000
C477        C  0.26928212  0.30523477  0.88592650    -0.18200
C478        C  0.28126710  0.27756541  0.86962878     0.10200
S479        S  0.36585401  0.41991511  0.84533523    -0.33200
S480        S  0.25030862  0.22367191  0.88722530    -0.33200
H481        H  0.28439890  0.21954678  0.89829116     0.28200
H482        H  0.39569836  0.41724878  0.81823965     0.28200
H483        H  0.37038560  0.34824028  0.81495191     0.18800
H484        H  0.24088850  0.29283837  0.90563867     0.18800
C485        C  0.96438896  0.94308248  0.74237767    -0.07100
C486        C  0.93082480  0.92251099  0.77335465    -0.18200
C487        C  0.90834442  0.87877577  0.77647232     0.10100
C488        C  0.91943660  0.85457898  0.74811203    -0.07000
C489        C  0.95150271  0.87478383  0.71531231    -0.18200
C490        C  0.97388285  0.91863045  0.71192889     0.10200
S491        S  0.86612362  0.85568935  0.81777768    -0.33200
S492        S  0.01369234  0.94129059  0.66772864    -0.33200
H493        H  0.00758191  0.97446216  0.65722392     0.28200
H494        H  0.84217304  0.81776622  0.79198845     0.28200
H495        H  0.92270680  0.94069886  0.79640826     0.18800
H496        H  0.95993190  0.85636400  0.69309892     0.18800
C497        C  0.97049395  0.07702079  0.76291842    -0.07100
C498        C  0.97808233  0.10993518  0.73297416    -0.18200
C499        C  0.95571962  0.13035222  0.73745209     0.10100
C500        C  0.92439024  0.11701073  0.77193972    -0.07000
C501        C  0.91807682  0.08511687  0.80293507    -0.18200
C502        C  0.94101687  0.06549380  0.79925940     0.10200
S503        S  0.96983306  0.17419901  0.69975150    -0.33200
S504        S  0.93203638  0.02686940  0.84297844    -0.33200
H505        H  0.97309055  0.03583577  0.84469881     0.28200
H506        H  0.96570182  0.19862176  0.73551446     0.28200
H507        H  0.00137887  0.11960858  0.70574175     0.18800
H508        H  0.89494714  0.07528931  0.83040698     0.18800
C509        C  0.09964857  0.07544560  0.75424747    -0.07100
C510        C  0.12347785  0.10679466  0.72168658    -0.18200
C511        C  0.16682187  0.12717830  0.72231209     0.10100
C512        C  0.18708580  0.11604433  0.75618966    -0.07000
C513        C  0.16331203  0.08625539  0.79030383    -0.18200
C514        C  0.11997345  0.06595377  0.78973837     0.10200
S515        S  0.19452760  0.16728523  0.67915046    -0.33200
S516        S  0.09236143  0.02821699  0.83522785    -0.33200
H517        H  0.05982926  0.03608145  0.83894782     0.28200
H518        H  0.23000277  0.19172791  0.70784154     0.28200
H519        H  0.10817977  0.11492761  0.69501697     0.18800
H520        H  0.17851308  0.07773487  0.81666835     0.18800
C521        C  0.88963249  0.28319183  0.01833254    -0.07100
C522        C  0.84737714  0.25887988  0.00557244    -0.18200
C523        C  0.83334859  0.23088576  0.96628624     0.10100
C524        C  0.86195860  0.22644741  0.93831601    -0.07000
C525        C  0.90394919  0.24958428  0.95124876    -0.18200
C526        C  0.91831425  0.27820496  0.99026194     0.10200
S527        S  0.77842088  0.20006471  0.95308285    -0.33200
S528        S  0.97357859  0.30939551  0.00086581    -0.33200
H529        H  0.98509064  0.28808338  0.96857430     0.28200
H530        H  0.76498440  0.20955466  0.99551297     0.28200
H531        H  0.82490501  0.26167967  0.02653263     0.18800
H532        H  0.92574237  0.24634643  0.92939265     0.18800
C533        C  0.16682654  0.34678394  0.41849144    -0.07100
C534        C  0.12624003  0.33896076  0.41987128    -0.18200
C535        C  0.11123849  0.34868766  0.46086794     0.10100
C536        C  0.13750079  0.36685657  0.50122822    -0.07000
C537        C  0.17707187  0.37218373  0.50070350    -0.18200
C538        C  0.19161041  0.36157350  0.46036379     0.10200
S539        S  0.06021228  0.34174412  0.45944395    -0.33200
S540        S  0.24232851  0.36803494  0.46435323    -0.33200
H541        H  0.23449355  0.33676521  0.42997499     0.28200
H542        H  0.04757404  0.32026858  0.41522181     0.28200
H543        H  0.10738374  0.32815587  0.38771332     0.18800
H544        H  0.19686379  0.38469567  0.53208753     0.18800
C545        C  0.22702935  0.38037680  0.00796854    -0.07100
C546        C  0.22790734  0.41238459  0.03607803    -0.18200
C547        C  0.20905886  0.40427246  0.08060754     0.10100
C548        C  0.19005867  0.36336776  0.09893688    -0.07000
C549        C  0.18922604  0.33144098  0.07100481    -0.18200
C550        C  0.20655657  0.33899234  0.02569362     0.10200
S551        S  0.20839052  0.44704472  0.11052182    -0.33200
S552        S  0.20000592  0.29445381  0.99118178    -0.33200
H553        H  0.17261094  0.26270455  0.02166718     0.28200
H554        H  0.16691386  0.42264783  0.12459445     0.28200
H555        H  0.24291455  0.44405614  0.02303584     0.18800
H556        H  0.17464651  0.30009081  0.08482519     0.18800
C557        C  0.06011701  0.37325862  0.19123988    -0.07100
C558        C  0.06241718  0.38894265  0.14562223    -0.18200
C559        C  0.02763458  0.38634956  0.12391366     0.10100
C560        C  0.98937792  0.36666035  0.14779217    -0.07000
C561        C  0.98827138  0.35483373  0.19513227    -0.18200
C562        C  0.02316091  0.35792554  0.21701209     0.10200
S563        S  0.03377475  0.40766867  0.06537198    -0.33200
S564        S  0.01747452  0.33769584  0.27610999    -0.33200
H565        H  0.05972495  0.36153827  0.28867000     0.28200
H566        H  0.00048521  0.41442563  0.06816174     0.28200
H567        H  0.09063125  0.40070643  0.12553422     0.18800
H568        H  0.95927499  0.34027276  0.21407122     0.18800
C569        C  0.37802348  0.24184744  0.50958931    -0.07100
C570        C  0.40292992  0.22802978  0.53003558    -0.18200
C571        C  0.39391905  0.20858790  0.57460440     0.10100
C572        C  0.35834664  0.20130204  0.59946688    -0.07000
C573        C  0.33333935  0.21481858  0.57937856    -0.18200
C574        C  0.34340382  0.23612582  0.53610275     0.10200
S575        S  0.42689390  0.19104763  0.59803465    -0.33200
S576        S  0.31218761  0.25762244  0.51930934    -0.33200
H577        H  0.34647910  0.29709606  0.50841573     0.28200
H578        H  0.45957715  0.21267872  0.56611659     0.28200
H579        H  0.42937886  0.23184249  0.51072600     0.18800
H580        H  0.30656928  0.21033074  0.59868369     0.18800
C581        C  0.33931180  0.28817504  0.36321128    -0.07100
C582        C  0.35508823  0.32277070  0.33309960    -0.18200
C583        C  0.32934025  0.33478482  0.31164165     0.10100
C584        C  0.28649772  0.31294276  0.32155795    -0.07000
C585        C  0.27013157  0.27651642  0.34862230    -0.18200
C586        C  0.29574778  0.26347455  0.36854468     0.10200
S587        S  0.35313533  0.37794858  0.27133424    -0.33200
S588        S  0.27056291  0.21437130  0.39894532    -0.33200
H589        H  0.29875973  0.20262160  0.38403108     0.28200
H590        H  0.31824632  0.36253888  0.24109033     0.28200
H591        H  0.38799832  0.34137657  0.32681133     0.18800
H592        H  0.23719474  0.25853088  0.35534629     0.18800
C593        C  0.79508524  0.16207885  0.62382910    -0.07100
C594        C  0.80687279  0.18616967  0.58240489    -0.18200
C595        C  0.78087915  0.17442587  0.54217917     0.10100
C596        C  0.74135953  0.13755913  0.54247877    -0.07000
C597        C  0.73021178  0.11205621  0.58274203    -0.18200
C598        C  0.75613443  0.12423346  0.62354299     0.10200
S599        S  0.80044710  0.20764784  0.49125679    -0.33200
S600        S  0.73638677  0.09182159  0.67500584    -0.33200
H601        H  0.74907178  0.12533103  0.70783162     0.28200
H602        H  0.78264654  0.17456866  0.45731933     0.28200
H603        H  0.83654098  0.21528149  0.58175056     0.18800
H604        H  0.70018236  0.08338748  0.58331242     0.18800
C605        C  0.65953311  0.83128513  0.42687247    -0.07100
C606        C  0.68581263  0.81940797  0.44714680    -0.18200
C607        C  0.67677330  0.79909013  0.49063340     0.10100
C608        C  0.64195471  0.79292086  0.51661372    -0.07000
C609        C  0.61498687  0.80352886  0.49541748    -0.18200
C610        C  0.62280930  0.82181827  0.45093340     0.10200
S611        S  0.70945943  0.77954715  0.50853248    -0.33200
S612        S  0.58441166  0.83235516  0.42820873    -0.33200
H613        H  0.61308252  0.87295636  0.41377481     0.28200
H614        H  0.67616240  0.74030495  0.52198716     0.28200
H615        H  0.71302713  0.82475052  0.42815992     0.14800
H616        H  0.58762648  0.79828126  0.51394439     0.18800
C617        C  0.62852228  0.90641215  0.05306193    -0.07100
C618        C  0.66651629  0.90820935  0.05577105    -0.18200
C619        C  0.67756197  0.89448108  0.09620848     0.10100
C620        C  0.64977272  0.87834562  0.13461256    -0.07000
C621        C  0.61344158  0.88012714  0.13293147    -0.18200
C622        C  0.60249330  0.89373181  0.09275610     0.10200
S623        S  0.72538934  0.89488638  0.09460711    -0.33200
S624        S  0.55412841  0.89262586  0.09380328    -0.33200
H625        H  0.56591435  0.92579252  0.06241888     0.28200
H626        H  0.74030693  0.91792046  0.13768672     0.28200
H627        H  0.68684472  0.91862475  0.02540267     0.18800
H628        H  0.59231508  0.86910481  0.16257811     0.18800
C629        C  0.65095186  0.96490376  0.36528167    -0.07100
C630        C  0.65180678  0.96567311  0.41530536    -0.18200
C631        C  0.65277143  0.99826885  0.44171203     0.10100
C632        C  0.65639768  0.03300595  0.41785114    -0.07000
C633        C  0.65205448  0.03057591  0.36784945    -0.18200
C634        C  0.64864048  0.99659666  0.34151130     0.10200
S635        S  0.64961531  0.99365740  0.50555206    -0.33200
S636        S  0.64669247  0.99804695  0.27763106    -0.33200
H637        H  0.61563358  0.95556237  0.27215821     0.28200
H638        H  0.62860689  0.01544920  0.51158839     0.28200
H639        H  0.65358905  0.94161360  0.43418572     0.18800
H640        H  0.65377905  0.05639305  0.34873736     0.18800
C641        C  0.47873655  0.30683600  0.37753024    -0.07100
C642        C  0.50006554  0.28617531  0.38817783    -0.18200
C643        C  0.53741687  0.29641833  0.36567236     0.10100
C644        C  0.55355706  0.32702746  0.32961975    -0.07000
C645        C  0.53360855  0.34960464  0.32184897    -0.18200
C646        C  0.49748874  0.34064880  0.34575262     0.10200
S647        S  0.56216180  0.26867671  0.38453773    -0.33200
S648        S  0.47791487  0.37477195  0.33469261    -0.33200
H649        H  0.46515207  0.37446403  0.38176302     0.28200
H650        H  0.60158349  0.30526543  0.38899672     0.28200
H651        H  0.48714970  0.26116610  0.41362886     0.18800
H652        H  0.54585576  0.37441937  0.29617004     0.18800
C653        C  0.66771401  0.23399690  0.36181019    -0.07100
C654        C  0.63814210  0.19149816  0.35439712    -0.18200
C655        C  0.63901925  0.16034962  0.38124229     0.10100
C656        C  0.67093843  0.17199430  0.41615981    -0.07000
C657        C  0.69872634  0.21493627  0.42525635    -0.18200
C658        C  0.69714195  0.24570716  0.39915946     0.10200
S659        S  0.59880917  0.10630480  0.36993541    -0.33200
S660        S  0.73384036  0.29972636  0.41530796    -0.33200
H661        H  0.70739307  0.31452489  0.40388498     0.28200
H662        H  0.57459203  0.11395566  0.33838732     0.28200
H663        H  0.61539897  0.18265719  0.32610473     0.18800
H664        H  0.72271166  0.22491446  0.45228967     0.18800
C665        C  0.85280153  0.35447475  0.14321264    -0.07100
C666        C  0.81055002  0.32302806  0.14166023    -0.18200
C667        C  0.78082835  0.32765773  0.16659086     0.10100
C668        C  0.79324689  0.36462523  0.19391293    -0.07000
C669        C  0.83504613  0.39658768  0.19416451    -0.18200
C670        C  0.86463311  0.39234150  0.16867517     0.10200
S671        S  0.72818796  0.28389376  0.16506763    -0.33200
S672        S  0.91682026  0.43683701  0.16984261    -0.33200
H673        H  0.92484706  0.43154980  0.12216614     0.28200
H674        H  0.70923763  0.30728520  0.17338955     0.28200
H675        H  0.80073133  0.29383116  0.12245344     0.18800
H676        H  0.84490968  0.42492482  0.21524467     0.18800
C677        C  0.87878043  0.67007511  0.50369081    -0.07100
C678        C  0.90732252  0.69560294  0.53950897    -0.18200
C679        C  0.89437861  0.70402043  0.58288881     0.10100
C680        C  0.85153889  0.68520015  0.59207492    -0.07000
C681        C  0.82329830  0.66222141  0.55476678    -0.18200
C682        C  0.83634136  0.65531856  0.51076799     0.10200
S683        S  0.93418065  0.73714775  0.62554990    -0.33200
S684        S  0.79715985  0.62826651  0.46506228    -0.33200
H685        H  0.82284911  0.65163165  0.42744495     0.28200
H686        H  0.92025628  0.76552349  0.62980958     0.28200
H687        H  0.94008842  0.70820243  0.53436118     0.18800
H688        H  0.79043584  0.64904144  0.55995385     0.18800
C689        C  0.85704707  0.56478159  0.38068114    -0.07100
C690        C  0.83822973  0.53047763  0.41101309    -0.18200
C691        C  0.81043038  0.48982136  0.39364074     0.10100
C692        C  0.80116003  0.48262235  0.34421720    -0.07000
C693        C  0.82050333  0.51702048  0.31383245    -0.18200
C694        C  0.84779868  0.55777960  0.33139836     0.10200
S695        S  0.78666698  0.44924517  0.43705553    -0.33200
S696        S  0.86755835  0.59931251  0.28908564    -0.33200
H697        H  0.86944058  0.63000418  0.32051285     0.28200
H698        H  0.74640888  0.43215024  0.41814049     0.28200
H699        H  0.84476065  0.53552535  0.44893360     0.18800
H700        H  0.81378245  0.51229555  0.27594332     0.18800
C701        C  0.34910832  0.17026914  0.92384756    -0.07100
C702        C  0.37038113  0.19836114  0.96210078    -0.18200
C703        C  0.37544402  0.18468683  0.00618933     0.10100
C704        C  0.35946706  0.14149508  0.01311947    -0.07000
C705        C  0.33524482  0.11292310  0.97641229    -0.18200
C706        C  0.33027192  0.12677051  0.93192506     0.10200
S707        S  0.40262422  0.22434436  0.05208655    -0.33200
S708        S  0.30313047  0.08766078  0.88583636    -0.33200
H709        H  0.33607978  0.10730750  0.85385534     0.28200
H710        H  0.37956445  0.19860427  0.08981677     0.28200
H711        H  0.38399362  0.23174951  0.95746530     0.18800
H712        H  0.32255804  0.07969854  0.98112328     0.18800
C713        C  0.46726125  0.16469172  0.13011381    -0.07100
C714        C  0.47486267  0.16149588  0.17857352    -0.18200
C715        C  0.51223254  0.19124357  0.20134974     0.10100
C716        C  0.54221053  0.22606736  0.17592592    -0.07000
C717        C  0.53574676  0.22767475  0.12699963    -0.18200
C718        C  0.49963720  0.19694421  0.10364209     0.10200
S719        S  0.51846085  0.18516877  0.26362113    -0.33200
S720        S  0.49764686  0.20062461  0.03988516    -0.33200
H721        H  0.47659547  0.15699756  0.03139889     0.28200
H722        H  0.55748078  0.18948332  0.25792312     0.28200
H723        H  0.45102726  0.13658378  0.19943905     0.18800
H724        H  0.55905102  0.25362233  0.10673269     0.18800
C725        C  0.14142461  0.81217904  0.09173121    -0.07100
C726        C  0.10144981  0.77662091  0.09181174    -0.18200
C727        C  0.08798345  0.74581723  0.05562477     0.10100
C728        C  0.11478233  0.75068882  0.01781750    -0.07000
C729        C  0.15334534  0.78800879  0.01556418    -0.18200
C730        C  0.16641233  0.81915411  0.05135869     0.10200
S731        S  0.03754445  0.69947023  0.06213978    -0.33200
S732        S  0.21538089  0.86717684  0.04388314    -0.33200
H733        H  0.20687394  0.89161343  0.07515493     0.28200
H734        H  0.04869347  0.67130030  0.04410258     0.28200
H735        H  0.08200617  0.77067163  0.12252815     0.18800
H736        H  0.17320425  0.79315482  0.98546400     0.18800
C737        C  0.28670868  0.89700968  0.52592840    -0.07100
C738        C  0.25951322  0.91218586  0.52492697    -0.18200
C739        C  0.23364158  0.90499178  0.48556049     0.10100
C740        C  0.23587122  0.88340539  0.44481280    -0.07000
C741        C  0.26251758  0.86739574  0.44650884    -0.18200
C742        C  0.28788651  0.87408491  0.48617469     0.10200
S743        S  0.19750876  0.92266728  0.49089809    -0.33200
S744        S  0.32282127  0.85478733  0.48243478    -0.33200
H745        H  0.35637748  0.89027808  0.50472181     0.28200
H746        H  0.16406599  0.88574669  0.47077305     0.28200
H747        H  0.25779512  0.92920238  0.55563987     0.18800
H748        H  0.26481156  0.85059307  0.41596233     0.18800
C749        C  0.07379940  0.76229148  0.36764471    -0.07100
C750        C  0.04678267  0.73223277  0.33399475    -0.18200
C751        C  0.00616613  0.70113139  0.34597520     0.10100
C752        C  0.99175952  0.70031008  0.39283952    -0.07000
C753        C  0.01997258  0.72912433  0.42694136    -0.18200
C754        C  0.06056006  0.75934488  0.41518027     0.10200
S755        S  0.97305274  0.66543070  0.29952752    -0.33200
S756        S  0.09403307  0.79312486  0.46278849    -0.33200
H757        H  0.13082869  0.79889140  0.44316431     0.28200
H758        H  0.00483669  0.67189999  0.26834203     0.28200
H759        H  0.05672560  0.73463663  0.29747216     0.18800
H760        H  0.01042381  0.72822892  0.46345002     0.18800
C761        C  0.33019136  0.03477508  0.13435409    -0.07100
C762        C  0.29503469  0.03016016  0.15684552    -0.18200
C763        C  0.26870001  0.99423379  0.18262928     0.10100
C764        C  0.27607905  0.96059156  0.18391207    -0.07000
C765        C  0.31191968  0.96587464  0.16196932    -0.18200
C766        C  0.33891447  0.00237630  0.13753957     0.10200
S767        S  0.22806917  0.99483843  0.21542906    -0.33200
S768        S  0.38320978  0.00498259  0.10983675    -0.33200
H769        H  0.38524907  0.02968554  0.07152223     0.28200
H770        H  0.23236565  0.97515929  0.25540024     0.28200
H771        H  0.28900796  0.05557960  0.15601195     0.18800
H772        H  0.31837059  0.94075483  0.16227182     0.18800
C773        C  0.81511589  0.68036483  0.90913073    -0.07100
C774        C  0.82865028  0.71151206  0.94520266    -0.18200
C775        C  0.81281827  0.70217523  0.99123013     0.10100
C776        C  0.78173443  0.66073249  0.00202964    -0.07000
C777        C  0.76754230  0.62961909  0.96610711    -0.18200
C778        C  0.78325431  0.63888944  0.91992915     0.10200
S779        S  0.83574681  0.74420209  0.03521948    -0.33200
S780        S  0.76002171  0.59629551  0.87672533    -0.33200
H781        H  0.75646022  0.62047848  0.84135722     0.28200
H782        H  0.83507579  0.71903245  0.07233647     0.28200
H783        H  0.85326230  0.74327156  0.93829296     0.18800
H784        H  0.74307684  0.59793810  0.97369736     0.18800
C785        C  0.72122683  0.56138332  0.13351569    -0.07100
C786        C  0.72834890  0.55945035  0.18231125    -0.18200
C787        C  0.71797125  0.52134126  0.20331527     0.10100
C788        C  0.70065139  0.48428098  0.17489467    -0.07000
C789        C  0.69353049  0.48613291  0.12634820    -0.18200
C790        C  0.70303473  0.52389022  0.10554419     0.10200
S791        S  0.72752587  0.52208022  0.26638822    -0.33200
S792        S  0.68877071  0.52137280  0.04375587    -0.33200
H793        H  0.67521873  0.54996316  0.04898461     0.28200
H794        H  0.69482581  0.48117710  0.27502520     0.28200
H795        H  0.74212683  0.58782066  0.20423555     0.18800
H796        H  0.67949518  0.45763399  0.10461573     0.18800
C797        C  0.70183794  0.75283004  0.17465483    -0.07100
C798        C  0.71943320  0.73584179  0.20405767    -0.18200
C799        C  0.73027959  0.70756486  0.18602106     0.10100
C800        C  0.72316995  0.69550473  0.13735804    -0.07000
C801        C  0.70625493  0.71309131  0.10785868    -0.18200
C802        C  0.69575938  0.74157701  0.12572324     0.10200
S803        S  0.75409980  0.68913426  0.22662908    -0.33200
S804        S  0.67589504  0.76315811  0.08380349    -0.33200
H805        H  0.69523553  0.80314283  0.10575079     0.28200
H806        H  0.78235785  0.68990389  0.19354409     0.28200
H807        H  0.72434484  0.74428112  0.24162514     0.18800
H808        H  0.70116440  0.70457966  0.07030735     0.18800
C809        C  0.29106770  0.59571319  0.29386948    -0.07100
C810        C  0.29764997  0.57767522  0.25318013    -0.18200
C811        C  0.27649356  0.53410949  0.24602429     0.10100
C812        C  0.24756999  0.50777952  0.27993993    -0.07000
C813        C  0.24026610  0.52585700  0.32007721    -0.18200
C814        C  0.26166459  0.56937765  0.32746738     0.10200
S815        S  0.28960595  0.51417113  0.19440829    -0.33200
S816        S  0.25156658  0.58906540  0.38164077    -0.33200
H817        H  0.29248058  0.62248677  0.38897071     0.28200
H818        H  0.28720449  0.47959266  0.21683279     0.28200
H819        H  0.31993798  0.59768692  0.22710035     0.18800
H820        H  0.21856141  0.50580856  0.34661310     0.18800
C821        C  0.42432574  0.73041890  0.29775748    -0.07100
C822        C  0.44562099  0.71037701  0.31094654    -0.18200
C823        C  0.48875016  0.73099662  0.30935197     0.10100
C824        C  0.51164806  0.77258839  0.29350603    -0.07000
C825        C  0.49093951  0.79352144  0.28238258    -0.18200
C826        C  0.44766651  0.77286543  0.28349283     0.10200
S827        S  0.51297235  0.70270783  0.32844686    -0.33200
S828        S  0.42472570  0.80167517  0.26209734    -0.33200
H829        H  0.39467044  0.76822779  0.23356926     0.28200
H830        H  0.54993171  0.73831598  0.34492226     0.28200
H831        H  0.42861575  0.67838808  0.32307075     0.18800
H832        H  0.50837877  0.82524690  0.26944450     0.18800
C833        C  0.25414251  0.77314335  0.29738237    -0.07100
C834        C  0.29145012  0.79161594  0.32314156    -0.18200
C835        C  0.31114790  0.76930501  0.33183874     0.10100
C836        C  0.29338037  0.72773099  0.31347969    -0.07000
C837        C  0.25482708  0.70891121  0.28975135    -0.18200
C838        C  0.23547087  0.73136453  0.28081124     0.10200
S839        S  0.35833103  0.79572408  0.36686044    -0.33200
S840        S  0.18832124  0.70575520  0.24555031    -0.33200
H841        H  0.19541165  0.74156441  0.22144697     0.28200
H842        H  0.35145158  0.75934678  0.38946520     0.28200
H843        H  0.30538233  0.82368105  0.33633502     0.18800
H844        H  0.24080535  0.67730712  0.27512268     0.18800
C845        C  0.83190609  0.92664386  0.26337298    -0.07100
C846        C  0.85878228  0.95934522  0.29497848    -0.18200
C847        C  0.90166810  0.97896255  0.29167600     0.10100
C848        C  0.91894527  0.96662802  0.25519338    -0.07000
C849        C  0.89256030  0.93406958  0.22337229    -0.18200
C850        C  0.84933460  0.91387646  0.22705082     0.10200
S851        S  0.93255042  0.01860298  0.33629053    -0.33200
S852        S  0.81862940  0.87164084  0.18520415    -0.33200
H853        H  0.79329976  0.84404862  0.22045311     0.28200
H854        H  0.96300001  0.00775921  0.34013127     0.28200
H855        H  0.84634657  0.96978189  0.32304473     0.18800
H856        H  0.90573692  0.92436459  0.19539971     0.18800
C857        C  0.05374103  0.09673748  0.24654580    -0.07100
C858        C  0.03742926  0.11740920  0.22179832    -0.18200
C859        C  0.05779522  0.16108140  0.22161950     0.10100
C860        C  0.09626152  0.18534180  0.24585440    -0.07000
C861        C  0.11273393  0.16482732  0.27064864    -0.18200
C862        C  0.09179085  0.12095375  0.27171421     0.10200
S863        S  0.03183131  0.18361633  0.19155423    -0.33200
S864        S  0.11432316  0.09821724  0.30784014    -0.33200
H865        H  0.07648293  0.06781565  0.32746879     0.28200
H866        H  0.04244730  0.21550312  0.22608271     0.28200
H867        H  0.00812732  0.09934096  0.20280615     0.18800
H868        H  0.14202981  0.18310986  0.28958528     0.18800
C869        C  0.08751234  0.91645822  0.25399290    -0.07100
C870        C  0.06000074  0.91301130  0.28997241    -0.18200
C871        C  0.03954641  0.93516077  0.28846918     0.10100
C872        C  0.04566745  0.96100690  0.24965970    -0.07000
C873        C  0.07205820  0.96396632  0.21303795    -0.18200
C874        C  0.09229855  0.94138204  0.21412793     0.10200
S875        S  0.00813588  0.93117032  0.33872677    -0.33200
S876        S  0.12326697  0.94594616  0.16339363    -0.33200
H877        H  0.10354889  0.90227919  0.15593541     0.28200
H878        H  0.01971357  0.97361954  0.33950255     0.28200
H879        H  0.05531816  0.89405755  0.32077642     0.18800
H880        H  0.07635651  0.98350503  0.18289984     0.18800
loop_ 
_geom_bond_atom_site_label_1 
_geom_bond_atom_site_label_2 
_geom_bond_distance 
_geom_bond_site_symmetry_2 
_ccdc_geom_bond_type 
C1            N2   1.359   1_455  A
C1            N6   1.358   1_565  A
C1          C872   1.467       .  S
N2            C3   1.356       .  A
C3            N4   1.357   1_565  A
C3          C848   1.473       .  S
N4            C5   1.358   1_655  A
C5            N6   1.357       .  A
C5          C857   1.481       .  S
C7            N8   1.355       .  A
C7           N12   1.362       .  A
C7          C821   1.487       .  S
N8            C9   1.355       .  A
C9           N10   1.358       .  A
C9          C836   1.478       .  S
N10          C11   1.355       .  A
C11          N12   1.360       .  A
C11         C809   1.476       .  S
C13          N14   1.353       .  A
C13          N18   1.359       .  A
C13         C776   1.481       .  S
N14          C15   1.355       .  A
C15          N16   1.363       .  A
C15         C800   1.482       .  S
N16          C17   1.364       .  A
C17          N18   1.362       .  A
C17         C785   1.487       .  S
O19         Ni25   1.924       .  S
O19          C40   1.274       .  A
O20         Ni43   1.885       .  S
O20          C29   1.266       .  A
O21         Ni25   1.890       .  S
O21         Ni43   1.894       .  S
O21         Ni37   1.926       .  S
O21          H44   0.964       .  S
C22         C725   1.481       .  S
C22          O39   1.288       .  A
C22          O31   1.282       .  A
O23         Ni42   1.937       .  S
O23          C29   1.275       .  A
O24         Ni42   1.915       .  S
O24          C26   1.268       .  A
Ni25         O28   1.933       .  S
Ni25         O30   1.911       .  S
C26         C764   1.495       .  S
C26          O36   1.269       .  A
O27         Ni43   1.913       .  S
O27          C33   1.271       .  A
O28          C33   1.277       .  A
C29         C833   1.455       .  S
O30          C32   1.269       .  A
O31         Ni42   1.932       .  S
C32         C749   1.485       .  S
C32          O38   1.277       .  A
C33         C740   1.493       .  S
H34          O35   0.968       .  S
O35         Ni43   1.884       .  S
O35         Ni37   1.883       .  S
O35         Ni42   1.888       .  S
O36         Ni37   1.936       .  S
Ni37         O41   1.913       .  S
Ni37         O39   1.928       .  S
O38         Ni43   1.940       .  S
C40         C869   1.491       .  S
C40          O41   1.272       .  A
C45          N46   1.362       .  A
C45          N50   1.358       .  A
C45         C704   1.493       .  S
N46          C47   1.364       .  A
C47          N48   1.361       .  A
C47         C761   1.478       .  S
N48          C49   1.359       .  A
C49          N50   1.358       .  A
C49         C713   1.495       .  S
C51          N52   1.357       .  A
C51          N56   1.359       .  A
C51         C677   1.492       .  S
N52          C53   1.358       .  A
C53          N54   1.363       .  A
C53         C689   1.483       .  S
N54          C55   1.364       .  A
C55          N56   1.363       .  A
C55         C752   1.499       .  S
O57         Ni63   1.908       .  S
O57          C78   1.265       .  A
O58         Ni81   1.906       .  S
O58          C67   1.268       .  A
O59         Ni63   1.907       .  S
O59         Ni81   1.901       .  S
O59         Ni75   1.930       .  S
O59          H82   0.966       .  S
C60         C716   1.485       .  S
C60          O77   1.282       .  A
C60          O69   1.279       .  A
O61         Ni80   1.941       .  S
O61          C67   1.274       .  A
O62         Ni80   1.912       .  S
O62          C64   1.272       .  A
Ni63         O66   1.923       .  S
Ni63         O68   1.907       .  S
C64         C644   1.510       .  S
C64          O74   1.275       .  A
O65         Ni81   1.923       .  S
O65          C71   1.277       .  A
O66          C71   1.276       .  A
C67         C788   1.476       .  S
O68          C70   1.266       .  A
O69         Ni80   1.923       .  S
C70         C668   1.483       .  S
C70          O76   1.276       .  A
C71         C692   1.490       .  S
H72          O73   0.966       .  S
O73         Ni81   1.908       .  S
O73         Ni75   1.916       .  S
O73         Ni80   1.900       .  S
O74         Ni75   1.946       .  S
Ni75         O79   1.940       .  S
Ni75         O77   1.934       .  S
O76         Ni81   1.947       .  S
C78         C653   1.484       .  S
C78          O79   1.276       .  A
O83         Ni89   1.909       .  S
O83         C104   1.269       .  A
O84        Ni107   1.908       .  S
O84          C93   1.268       .  A
O85         Ni89   1.908       .  S
O85        Ni107   1.906       .  S
O85        Ni101   1.950       .  S
O85         H108   0.966       .  S
C86         C629   1.478       .  S
C86         O103   1.280       .  A
C86          O95   1.277       .  A
O87        Ni106   1.933       .  S
O87          C93   1.274       .  A
O88        Ni106   1.908       .  S
O88          C90   1.268       .  A
Ni89         O92   1.930       .  S
Ni89         O94   1.885       .  S
C90         C605   1.477       .  S
C90         O100   1.265       .  A
O91        Ni107   1.906       .  S
O91          C97   1.262       .  A
O92          C97   1.266       .  A
C93         C845   1.489       .  S
O94          C96   1.274       .  A
O95        Ni106   1.928       .  S
C96         C620   1.483       .  S
C96         O102   1.286       .  A
C97         C797   1.481       .  S
H98          O99   0.967       .  S
O99        Ni107   1.888       .  S
O99        Ni101   1.895       .  S
O99        Ni106   1.901       .  S
O100       Ni101   1.914       .  S
Ni101       O105   1.916       .  S
Ni101       O103   1.926       .  S
O102       Ni107   1.965       .  S
C104        C824   1.472       .  S
C104        O105   1.270       .  A
C109        N110   1.358       .  A
C109        N114   1.368       .  A
C109        C596   1.494       .  S
N110        C111   1.360       .  A
C111        N112   1.356       .  A
C111        C632   1.487       .  S
N112        C113   1.356       .  A
C113        N114   1.369       .  A
C113        C656   1.504       .  S
C115        N116   1.363       .  A
C115        N120   1.368       .  A
C115        C569   1.511       .  S
N116        C117   1.362       .  A
C117        N118   1.360       .  A
C117        C581   1.501       .  S
N118        C119   1.362       .  A
C119        N120   1.365       .  A
C119        C641   1.502       .  S
O121       Ni127   1.926       .  S
O121        C142   1.269       .  A
O122       Ni145   1.915       .  S
O122        C131   1.272       .  A
O123       Ni127   1.899       .  S
O123       Ni145   1.907       .  S
O123       Ni139   1.927       .  S
O123        H146   0.966       .  S
C124        C557   1.473       .  S
C124        O141   1.283       .  A
C124        O133   1.276       .  A
O125       Ni144   1.921       .  S
O125        C131   1.270       .  A
O126       Ni144   1.902       .  S
O126        C128   1.268       .  A
Ni127       O130   1.923       .  S
Ni127       O132   1.899       .  S
C128        C548   1.482       .  S
C128        O138   1.268       .  A
O129       Ni145   1.938       .  S
O129        C135   1.280       .  A
O130        C135   1.276       .  A
C131        C860   1.478       .  S
O132        C134   1.267       .  A
O133       Ni144   1.917       .  S
C134        C533   1.481       .  S
C134        O140   1.275       .  A
C135        C584   1.493       .  S
H136        O137   0.966       .  S
O137       Ni145   1.914       .  S
O137       Ni139   1.901       .  S
O137       Ni144   1.896       .  S
O138       Ni139   1.921       .  S
Ni139       O143   1.918       .  S
Ni139       O141   1.937       .  S
O140       Ni145   1.938       .  S
C142        C812   1.474       .  S
C142        O143   1.270       .  A
C147        N148   1.365       .  A
C147        N152   1.361       .  A
C147        C665   1.497       .  S
N148        C149   1.368       .  A
C149        N150   1.360       .  A
C149        C521   1.509       .  S
N150        C151   1.359       .  A
C151        N152   1.358       .  A
C151        C560   1.481       .  S
C153        N154   1.358       .  A
C153        N158   1.359   1_655  A
C153        C497   1.476       .  S
N154        C155   1.358   1_545  A
C155        N156   1.361   1_665  A
C155        C485   1.485       .  S
N156        C157   1.362       .  A
C157        N158   1.360       .  A
C157        C509   1.480       .  S
O159       Ni165   1.939       .  S
O159        C180   1.276       .  A
O160       Ni183   1.911       .  S
O160        C169   1.266       .  A
O161       Ni165   1.898       .  S
O161       Ni183   1.903       .  S
O161       Ni177   1.900       .  S
O161        H184   0.965       .  S
C162        C473   1.473       .  S
C162        O179   1.277       .  A
C162        O171   1.274       .  A
O163       Ni182   1.906       .  S
O163        C169   1.263       .  A
O164       Ni182   1.899       .  S
O164        C166   1.268       .  A
Ni165       O168   1.930       .  S
Ni165       O170   1.924       .  S
C166        C701   1.497       .  S
C166        O176   1.278       .  A
O167       Ni183   1.911       .  S
O167        C173   1.276       .  A
O168        C173   1.280       .  A
C169        C449   1.469       .  S
O170        C172   1.270       .  A
O171       Ni182   1.904       .  S
C172        C572   1.495       .  S
C172        O178   1.271       .  A
C173        C461   1.464       .  S
H174        O175   0.966       .  S
O175       Ni183   1.917       .  S
O175       Ni177   1.906       .  S
O175       Ni182   1.902       .  S
O176       Ni177   1.952       .  S
Ni177       O181   1.915       .  S
Ni177       O179   1.919       .  S
O178       Ni183   1.933       .  S
C180        C512   1.482       .  S
C180        O181   1.272       .  A
C185        N186   1.365       .  A
C185        N190   1.355       .  A
C185        C545   1.489   1_556  S
N186        C187   1.363       .  A
C187        N188   1.357       .  A
C187        C437   1.485       .  S
N188        C189   1.353       .  A
C189        N190   1.352       .  A
C189        C476   1.476       .  S
C191        N192   1.364       .  A
C191        N196   1.361       .  A
C191        C536   1.482       .  S
N192        C193   1.360       .  A
C193        N194   1.350       .  A
C193        C428   1.478       .  S
N194        C195   1.355       .  A
C195        N196   1.358       .  A
C195        C413   1.493       .  S
O197       Ni203   1.933       .  S
O197        C218   1.277       .  A
O198       Ni221   1.911       .  S
O198        C207   1.265       .  A
O199       Ni203   1.894       .  S
O199       Ni221   1.892       .  S
O199       Ni215   1.900       .  S
O199        H222   0.966       .  S
C200        C416   1.472       .  S
C200        O217   1.277       .  A
C200        O209   1.275       .  A
O201       Ni220   1.906       .  S
O201        C207   1.263       .  A
O202       Ni220   1.895       .  S
O202        C204   1.266       .  A
Ni203       O206   1.931       .  S
Ni203       O208   1.926       .  S
C204        C593   1.496       .  S
C204        O214   1.284       .  A
O205       Ni221   1.906       .  S
O205        C211   1.278       .  A
O206        C211   1.281       .  A
C207        C392   1.466       .  S
O208        C210   1.269       .  A
O209       Ni220   1.908       .  S
C210        C524   1.489       .  S
C210        O216   1.266       .  A
C211        C401   1.461       .  S
H212        O213   0.967       .  S
O213       Ni221   1.921       .  S
O213       Ni215   1.894       .  S
O213       Ni220   1.885       .  S
O214       Ni215   1.968       .  S
Ni215       O219   1.912       .  S
Ni215       O217   1.929       .  S
O216       Ni221   1.921       .  S
C218        C500   1.482       .  S
C218        O219   1.277       .  A
C223        N224   1.356       .  A
C223        N228   1.354       .  A
C223        C377   1.477       .  S
N224        C225   1.360       .  A
C225        N226   1.367       .  A
C225        C368   1.492       .  S
N226        C227   1.364       .  A
C227        N228   1.352       .  A
C227        C728   1.481   1_556  S
O229       Ni235   1.921       .  S
O229        C250   1.268       .  A
O230       Ni253   1.920       .  S
O230        C239   1.272       .  A
O231       Ni235   1.901       .  S
O231       Ni253   1.905       .  S
O231       Ni247   1.904       .  S
O231        H254   0.966       .  S
C232        C344   1.472       .  S
C232        O249   1.269       .  A
C232        O241   1.276       .  A
O233       Ni252   1.920       .  S
O233        C239   1.270       .  A
O234       Ni252   1.904       .  S
O234        C236   1.266       .  A
Ni235       O238   1.903       .  S
Ni235       O240   1.911       .  S
C236        C356   1.476       .  S
C236        O246   1.272       .  A
O237       Ni253   1.936       .  S
O237        C243   1.283       .  A
O238        C243   1.273       .  A
C239        C365   1.470       .  S
O240        C242   1.271       .  A
O241       Ni252   1.931       .  S
C242        C440   1.483       .  S
C242        O248   1.272       .  A
C243        C425   1.468       .  S
H244        O245   0.966       .  S
O245       Ni253   1.921       .  S
O245       Ni247   1.905       .  S
O245       Ni252   1.908       .  S
O246       Ni247   1.937       .  S
Ni247       O251   1.897       .  S
Ni247       O249   1.902       .  S
O248       Ni253   1.927       .  S
C250        C329   1.476       .  S
C250        O251   1.263       .  A
O255       Ni261   1.942       .  S
O255        C276   1.276       .  A
O256       Ni279   1.906       .  S
O256        C265   1.266       .  A
O257       Ni261   1.905       .  S
O257       Ni279   1.905       .  S
O257       Ni273   1.897       .  S
O257        H280   0.967       .  S
C258        C317   1.476       .  S
C258        O275   1.274       .  A
C258        O267   1.275       .  A
O259       Ni278   1.929       .  S
O259        C265   1.272       .  A
O260       Ni278   1.908       .  S
O260        C262   1.270       .  A
Ni261       O264   1.936       .  S
Ni261       O266   1.915       .  S
C262        C680   1.497       .  S
C262        O272   1.274       .  A
O263       Ni279   1.901       .  S
O263        C269   1.273       .  A
O264        C269   1.279       .  A
C265        C305   1.488       .  S
O266        C268   1.270       .  A
O267       Ni278   1.914       .  S
C268        C773   1.494       .  S
C268        O274   1.269       .  A
C269        C380   1.463       .  S
H270        O271   0.965       .  S
O271       Ni279   1.904       .  S
O271       Ni273   1.901       .  S
O271       Ni278   1.899       .  S
O272       Ni273   1.937       .  S
Ni273       O277   1.907       .  S
Ni273       O275   1.913       .  S
O274       Ni279   1.933       .  S
C276        C488   1.478       .  S
C276        O277   1.269       .  A
C281        N282   1.354       .  A
C281        N286   1.357       .  A
C281        C608   1.484       .  S
N282        C283   1.355       .  A
C283        N284   1.357       .  A
C283        C320   1.475       .  S
N284        C285   1.356       .  A
C285        N286   1.355       .  A
C285        C332   1.469       .  S
C287        N288   1.358   1_554  A
C287        N292   1.354   1_554  A
C287        C617   1.465       .  S
N288        C289   1.358       .  A
C289        N290   1.357       .  A
C289        C341   1.477       .  S
N290        C291   1.357       .  A
C291        N292   1.357       .  A
C291        C404   1.477   1_565  S
C293        N294   1.363       .  A
C293        N298   1.354       .  A
C293        C737   1.481       .  S
N294        C295   1.365       .  A
C295        N296   1.361       .  A
C295        C353   1.484       .  S
N296        C297   1.357       .  A
C297        N298   1.353       .  A
C297        C464   1.470       .  S
C299        N300   1.358       .  A
C299        N304   1.355       .  A
C299        C452   1.470       .  S
N300        C301   1.358       .  A
C301        N302   1.355       .  A
C301        C308   1.477       .  S
N302        C303   1.358       .  A
C303        N304   1.353       .  A
C303        C389   1.472       .  S
C305        C306   1.408       .  A
C305        C310   1.419       .  A
C306        C307   1.397       .  A
C306        H315   1.083       .  S
C307        C308   1.411       .  A
C307        S311   1.804       .  S
C308        C309   1.403       .  A
C309        C310   1.400       .  A
C309        H316   1.084       .  S
C310        S312   1.803       .  S
S311        H314   1.407       .  S
S312        H313   1.407       .  S
C317        C318   1.405       .  A
C317        C322   1.414       .  A
C318        C319   1.397       .  A
C318        H327   1.084       .  S
C319        C320   1.414       .  A
C319        S323   1.804       .  S
C320        C321   1.403       .  A
C321        C322   1.393       .  A
C321        H328   1.083       .  S
C322        S324   1.804       .  S
S323        H326   1.407       .  S
S324        H325   1.408       .  S
C329        C330   1.405       .  A
C329        C334   1.416       .  A
C330        C331   1.396       .  A
C330        H339   1.084       .  S
C331        C332   1.412       .  A
C331        S335   1.804       .  S
C332        C333   1.401       .  A
C333        C334   1.396       .  A
C333        H340   1.084       .  S
C334        S336   1.804       .  S
S335        H338   1.407       .  S
S336        H337   1.408       .  S
C341        C342   1.404       .  A
C341        C346   1.415       .  A
C342        C343   1.395       .  A
C342        H351   1.084       .  S
C343        C344   1.410       .  A
C343        S347   1.803       .  S
C344        C345   1.404       .  A
C345        C346   1.401       .  A
C345        H352   1.084       .  S
C346        S348   1.804       .  S
S347        H350   1.405       .  S
S348        H349   1.407       .  S
C353        C354   1.404       .  A
C353        C358   1.417       .  A
C354        C355   1.402       .  A
C354        H363   1.084       .  S
C355        C356   1.413       .  A
C355        S359   1.805       .  S
C356        C357   1.402       .  A
C357        C358   1.403       .  A
C357        H364   1.083       .  S
C358        S360   1.803       .  S
S359        H362   1.406       .  S
S360        H361   1.407       .  S
C365        C366   1.403       .  A
C365        C370   1.407       .  A
C366        C367   1.403       .  A
C366        H375   1.084       .  S
C367        C368   1.416       .  A
C367        S371   1.802       .  S
C368        C369   1.409       .  A
C369        C370   1.399       .  A
C369        H376   1.081       .  S
C370        S372   1.804       .  S
S371        H374   1.407   1_556  S
S372        H373   1.405       .  S
C377        C378   1.404   1_455  A
C377        C382   1.417       .  A
C378        C379   1.393       .  A
C378        H387   1.084       .  S
C379        C380   1.408       .  A
C379        S383   1.804       .  S
C380        C381   1.399       .  A
C381        C382   1.402   1_655  A
C381        H388   1.083       .  S
C382        S384   1.806       .  S
S383        H386   1.407       .  S
S384        H385   1.407       .  S
C389        C390   1.400       .  A
C389        C394   1.417       .  A
C390        C391   1.388       .  A
C390        H399   1.084       .  S
C391        C392   1.412       .  A
C391        S395   1.804       .  S
C392        C393   1.402       .  A
C393        C394   1.400       .  A
C393        H400   1.084       .  S
C394        S396   1.803       .  S
S395        H398   1.407       .  S
S396        H397   1.407       .  S
C401        C402   1.400       .  A
C401        C406   1.409       .  A
C402        C403   1.397       .  A
C402        H411   1.083       .  S
C403        C404   1.416       .  A
C403        S407   1.804   1_556  S
C404        C405   1.404       .  A
C405        C406   1.394       .  A
C405        H412   1.084   1_545  S
C406        S408   1.802       .  S
S407        H410   1.408       .  S
S408        H409   1.405       .  S
C413        C414   1.411       .  A
C413        C418   1.421       .  A
C414        C415   1.392   1_455  A
C414        H423   1.083       .  S
C415        C416   1.407       .  A
C415        S419   1.805       .  S
C416        C417   1.403       .  A
C417        C418   1.402   1_655  A
C417        H424   1.084       .  S
C418        S420   1.801       .  S
S419        H422   1.407       .  S
S420        H421   1.408       .  S
C425        C426   1.400       .  A
C425        C430   1.412       .  A
C426        C427   1.401       .  A
C426        H435   1.084       .  S
C427        C428   1.415       .  A
C427        S431   1.809       .  S
C428        C429   1.403       .  A
C429        C430   1.401       .  A
C429        H436   1.084       .  S
C430        S432   1.803       .  S
S431        H434   1.407       .  S
S432        H433   1.407       .  S
C437        C438   1.407       .  A
C437        C442   1.416       .  A
C438        C439   1.406       .  A
C438        H447   1.084       .  S
C439        C440   1.415       .  A
C439        S443   1.802       .  S
C440        C441   1.403       .  A
C441        C442   1.395       .  A
C441        H448   1.084       .  S
C442        S444   1.805       .  S
S443        H446   1.407       .  S
S444        H445   1.407       .  S
C449        C450   1.400       .  A
C449        C454   1.416       .  A
C450        C451   1.397       .  A
C450        H459   1.084       .  S
C451        C452   1.415       .  A
C451        S455   1.803       .  S
C452        C453   1.400       .  A
C453        C454   1.395       .  A
C453        H460   1.084       .  S
C454        S456   1.805       .  S
S455        H458   1.407       .  S
S456        H457   1.407       .  S
C461        C462   1.399       .  A
C461        C466   1.411       .  A
C462        C463   1.402       .  A
C462        H471   1.083       .  S
C463        C464   1.412   1_545  A
C463        S467   1.806       .  S
C464        C465   1.401       .  A
C465        C466   1.396   1_565  A
C465        H472   1.084       .  S
C466        S468   1.804       .  S
S467        H470   1.407       .  S
S468        H469   1.406       .  S
C473        C474   1.405       .  A
C473        C478   1.412       .  A
C474        C475   1.399       .  A
C474        H483   1.083       .  S
C475        C476   1.412       .  A
C475        S479   1.809       .  S
C476        C477   1.405       .  A
C477        C478   1.395       .  A
C477        H484   1.081       .  S
C478        S480   1.805       .  S
S479        H482   1.406       .  S
S480        H481   1.408       .  S
C485        C486   1.406       .  A
C485        C490   1.416       .  A
C486        C487   1.400       .  A
C486        H495   1.084       .  S
C487        C488   1.412       .  A
C487        S491   1.804       .  S
C488        C489   1.403       .  A
C489        C490   1.404       .  A
C489        H496   1.084       .  S
C490        S492   1.802   1_655  S
S491        H494   1.407       .  S
S492        H493   1.407       .  S
C497        C498   1.404       .  A
C497        C502   1.412       .  A
C498        C499   1.404       .  A
C498        H507   1.084   1_655  S
C499        C500   1.414       .  A
C499        S503   1.801       .  S
C500        C501   1.405       .  A
C501        C502   1.397       .  A
C501        H508   1.084       .  S
C502        S504   1.805       .  S
S503        H506   1.407       .  S
S504        H505   1.407       .  S
C509        C510   1.403       .  A
C509        C514   1.414       .  A
C510        C511   1.403       .  A
C510        H519   1.084       .  S
C511        C512   1.416       .  A
C511        S515   1.804       .  S
C512        C513   1.403       .  A
C513        C514   1.403       .  A
C513        H520   1.084       .  S
C514        S516   1.804       .  S
S515        H518   1.407       .  S
S516        H517   1.407       .  S
C521        C522   1.409       .  A
C521        C526   1.427   1_554  A
C522        C523   1.404   1_554  A
C522        H531   1.082       .  S
C523        C524   1.413       .  A
C523        S527   1.809       .  S
C524        C525   1.400       .  A
C525        C526   1.411       .  A
C525        H532   1.083       .  S
C526        S528   1.808   1_556  S
S527        H530   1.407       .  S
S528        H529   1.407   1_554  S
C533        C534   1.405       .  A
C533        C538   1.415       .  A
C534        C535   1.408       .  A
C534        H543   1.083       .  S
C535        C536   1.414       .  A
C535        S539   1.807       .  S
C536        C537   1.402       .  A
C537        C538   1.398       .  A
C537        H544   1.084       .  S
C538        S540   1.805       .  S
S539        H542   1.407       .  S
S540        H541   1.408       .  S
C545        C546   1.405       .  A
C545        C550   1.422       .  A
C546        C547   1.400       .  A
C546        H555   1.084       .  S
C547        C548   1.416       .  A
C547        S551   1.802       .  S
C548        C549   1.401       .  A
C549        C550   1.398       .  A
C549        H556   1.082       .  S
C550        S552   1.810   1_554  S
S551        H554   1.406       .  S
S552        H553   1.407   1_556  S
C557        C558   1.403       .  A
C557        C562   1.412       .  A
C558        C559   1.403       .  A
C558        H567   1.084       .  S
C559        C560   1.414   1_455  A
C559        S563   1.803       .  S
C560        C561   1.403       .  A
C561        C562   1.401   1_655  A
C561        H568   1.084       .  S
C562        S564   1.804       .  S
S563        H566   1.406       .  S
S564        H565   1.406       .  S
C569        C570   1.411       .  A
C569        C574   1.425       .  A
C570        C571   1.411       .  A
C570        H579   1.082       .  S
C571        C572   1.414       .  A
C571        S575   1.808       .  S
C572        C573   1.402       .  A
C573        C574   1.407       .  A
C573        H580   1.084       .  S
C574        S576   1.801       .  S
S575        H578   1.407       .  S
S576        H577   1.408       .  S
C581        C582   1.408       .  A
C581        C586   1.419       .  A
C582        C583   1.403       .  A
C582        H591   1.082       .  S
C583        C584   1.416       .  A
C583        S587   1.804       .  S
C584        C585   1.406       .  A
C585        C586   1.407       .  A
C585        H592   1.084       .  S
C586        S588   1.801       .  S
S587        H590   1.408       .  S
S588        H589   1.407       .  S
C593        C594   1.410       .  A
C593        C598   1.416       .  A
C594        C595   1.402       .  A
C594        H603   1.084       .  S
C595        C596   1.412       .  A
C595        S599   1.803       .  S
C596        C597   1.410       .  A
C597        C598   1.412       .  A
C597        H604   1.084       .  S
C598        S600   1.801       .  S
S599        H602   1.407       .  S
S600        H601   1.407       .  S
C605        C606   1.403       .  A
C605        C610   1.418       .  A
C606        C607   1.397       .  A
C606        H615   1.084       .  S
C607        C608   1.419       .  A
C607        S611   1.803       .  S
C608        C609   1.404       .  A
C609        C610   1.393       .  A
C609        H616   1.083       .  S
C610        S612   1.805       .  S
S611        H614   1.408       .  S
S612        H613   1.399       .  S
C617        C618   1.403       .  A
C617        C622   1.406       .  A
C618        C619   1.403       .  A
C618        H627   1.084       .  S
C619        C620   1.415       .  A
C619        S623   1.799       .  S
C620        C621   1.408       .  A
C621        C622   1.392       .  A
C621        H628   1.084       .  S
C622        S624   1.806       .  S
S623        H626   1.407       .  S
S624        H625   1.406       .  S
C629        C630   1.406       .  A
C629        C634   1.409       .  A
C630        C631   1.397       .  A
C630        H639   1.082       .  S
C631        C632   1.412   1_565  A
C631        S635   1.804       .  S
C632        C633   1.410       .  A
C633        C634   1.403   1_545  A
C633        H640   1.083       .  S
C634        S636   1.800       .  S
S635        H638   1.408   1_565  S
S636        H637   1.406       .  S
C641        C642   1.408       .  A
C641        C646   1.417       .  A
C642        C643   1.411       .  A
C642        H651   1.084       .  S
C643        C644   1.423       .  A
C643        S647   1.801       .  S
C644        C645   1.410       .  A
C645        C646   1.402       .  A
C645        H652   1.083       .  S
C646        S648   1.803       .  S
S647        H650   1.408       .  S
S648        H649   1.407       .  S
C653        C654   1.399       .  A
C653        C658   1.415       .  A
C654        C655   1.411       .  A
C654        H663   1.083       .  S
C655        C656   1.429       .  A
C655        S659   1.810       .  S
C656        C657   1.405       .  A
C657        C658   1.400       .  A
C657        H664   1.083       .  S
C658        S660   1.805       .  S
S659        H662   1.407       .  S
S660        H661   1.407       .  S
C665        C666   1.408       .  A
C665        C670   1.419       .  A
C666        C667   1.407       .  A
C666        H675   1.084       .  S
C667        C668   1.415       .  A
C667        S671   1.804       .  S
C668        C669   1.401       .  A
C669        C670   1.403       .  A
C669        H676   1.084       .  S
C670        S672   1.803       .  S
S671        H674   1.403       .  S
S672        H673   1.407       .  S
C677        C678   1.407       .  A
C677        C682   1.415       .  A
C678        C679   1.404       .  A
C678        H687   1.084       .  S
C679        C680   1.417       .  A
C679        S683   1.799       .  S
C680        C681   1.410       .  A
C681        C682   1.400       .  A
C681        H688   1.084       .  S
C682        S684   1.804       .  S
S683        H686   1.408       .  S
S684        H685   1.407       .  S
C689        C690   1.403       .  A
C689        C694   1.414       .  A
C690        C691   1.401       .  A
C690        H699   1.084       .  S
C691        C692   1.418       .  A
C691        S695   1.803       .  S
C692        C693   1.407       .  A
C693        C694   1.402       .  A
C693        H700   1.084       .  S
C694        S696   1.801       .  S
S695        H698   1.407       .  S
S696        H697   1.405       .  S
C701        C702   1.408       .  A
C701        C706   1.417       .  A
C702        C703   1.398   1_556  A
C702        H711   1.084       .  S
C703        C704   1.415       .  A
C703        S707   1.805       .  S
C704        C705   1.408   1_554  A
C705        C706   1.410       .  A
C705        H712   1.083       .  S
C706        S708   1.798       .  S
S707        H710   1.407       .  S
S708        H709   1.406       .  S
C713        C714   1.411       .  A
C713        C718   1.417       .  A
C714        C715   1.407       .  A
C714        H723   1.083       .  S
C715        C716   1.412       .  A
C715        S719   1.799       .  S
C716        C717   1.404       .  A
C717        C718   1.398       .  A
C717        H724   1.084       .  S
C718        S720   1.804       .  S
S719        H722   1.407       .  S
S720        H721   1.408       .  S
C725        C726   1.402       .  A
C725        C730   1.417       .  A
C726        C727   1.401       .  A
C726        H735   1.084       .  S
C727        C728   1.417       .  A
C727        S731   1.804       .  S
C728        C729   1.402       .  A
C729        C730   1.402       .  A
C729        H736   1.084   1_554  S
C730        S732   1.805       .  S
S731        H734   1.406       .  S
S732        H733   1.408       .  S
C737        C738   1.407       .  A
C737        C742   1.409       .  A
C738        C739   1.401       .  A
C738        H747   1.084       .  S
C739        C740   1.416       .  A
C739        S743   1.802       .  S
C740        C741   1.412       .  A
C741        C742   1.400       .  A
C741        H748   1.084       .  S
C742        S744   1.803       .  S
S743        H746   1.407       .  S
S744        H745   1.407       .  S
C749        C750   1.402       .  A
C749        C754   1.414       .  A
C750        C751   1.409       .  A
C750        H759   1.083       .  S
C751        C752   1.421   1_455  A
C751        S755   1.802   1_455  S
C752        C753   1.407   1_655  A
C753        C754   1.398       .  A
C753        H760   1.084       .  S
C754        S756   1.805       .  S
S755        H758   1.407   1_655  S
S756        H757   1.407       .  S
C761        C762   1.401       .  A
C761        C766   1.412       .  A
C762        C763   1.403   1_545  A
C762        H771   1.084       .  S
C763        C764   1.420       .  A
C763        S767   1.802       .  S
C764        C765   1.408       .  A
C765        C766   1.401   1_565  A
C765        H772   1.083       .  S
C766        S768   1.804       .  S
S767        H770   1.407       .  S
S768        H769   1.406       .  S
C773        C774   1.407       .  A
C773        C778   1.423       .  A
C774        C775   1.399       .  A
C774        H783   1.083       .  S
C775        C776   1.414   1_556  A
C775        S779   1.804   1_556  S
C776        C777   1.401   1_554  A
C777        C778   1.401       .  A
C777        H784   1.084       .  S
C778        S780   1.803       .  S
S779        H782   1.407       .  S
S780        H781   1.406       .  S
C785        C786   1.407       .  A
C785        C790   1.417       .  A
C786        C787   1.406       .  A
C786        H795   1.084       .  S
C787        C788   1.413       .  A
C787        S791   1.805       .  S
C788        C789   1.400       .  A
C789        C790   1.400       .  A
C789        H796   1.084       .  S
C790        S792   1.803       .  S
S791        H794   1.405       .  S
S792        H793   1.407       .  S
C797        C798   1.406       .  A
C797        C802   1.413       .  A
C798        C799   1.402       .  A
C798        H807   1.084       .  S
C799        C800   1.413       .  A
C799        S803   1.802       .  S
C800        C801   1.406       .  A
C801        C802   1.398       .  A
C801        H808   1.084       .  S
C802        S804   1.804       .  S
S803        H806   1.407       .  S
S804        H805   1.405       .  S
C809        C810   1.403       .  A
C809        C814   1.414       .  A
C810        C811   1.401       .  A
C810        H819   1.084       .  S
C811        C812   1.412       .  A
C811        S815   1.802       .  S
C812        C813   1.404       .  A
C813        C814   1.400       .  A
C813        H820   1.084       .  S
C814        S816   1.804       .  S
S815        H818   1.406       .  S
S816        H817   1.406       .  S
C821        C822   1.405       .  A
C821        C826   1.422       .  A
C822        C823   1.397       .  A
C822        H831   1.084       .  S
C823        C824   1.411       .  A
C823        S827   1.804       .  S
C824        C825   1.399       .  A
C825        C826   1.401       .  A
C825        H832   1.084       .  S
C826        S828   1.803       .  S
S827        H830   1.408       .  S
S828        H829   1.407       .  S
C833        C834   1.398       .  A
C833        C838   1.406       .  A
C834        C835   1.397       .  A
C834        H843   1.084       .  S
C835        C836   1.419       .  A
C835        S839   1.803       .  S
C836        C837   1.406       .  A
C837        C838   1.393       .  A
C837        H844   1.083       .  S
C838        S840   1.806       .  S
S839        H842   1.407       .  S
S840        H841   1.406       .  S
C845        C846   1.408       .  A
C845        C850   1.419       .  A
C846        C847   1.394       .  A
C846        H855   1.084       .  S
C847        C848   1.409       .  A
C847        S851   1.805   1_565  S
C848        C849   1.404       .  A
C849        C850   1.405       .  A
C849        H856   1.084       .  S
C850        S852   1.801       .  S
S851        H854   1.407       .  S
S852        H853   1.406       .  S
C857        C858   1.402       .  A
C857        C862   1.417       .  A
C858        C859   1.396       .  A
C858        H867   1.084       .  S
C859        C860   1.416       .  A
C859        S863   1.805       .  S
C860        C861   1.403       .  A
C861        C862   1.402       .  A
C861        H868   1.084       .  S
C862        S864   1.802       .  S
S863        H866   1.407       .  S
S864        H865   1.407       .  S
C869        C870   1.411       .  A
C869        C874   1.420       .  A
C870        C871   1.394       .  A
C870        H879   1.083       .  S
C871        C872   1.407       .  A
C871        S875   1.805       .  S
C872        C873   1.400       .  A
C873        C874   1.401       .  A
C873        H880   1.084       .  S
C874        S876   1.800       .  S
S875        H878   1.407       .  S
S876        H877   1.408       .  S
