geometry optimzed in LAMMPS
_audit_creation_date              2020-12-01 
_audit_creation_method            'lammps2cif' 
_symmetry_space_group_name_H-M    'P1' 
_symmetry_Int_Tables_number       1 
_symmetry_cell_setting            triclinic 
loop_ 
_symmetry_equiv_pos_as_xyz 
  x,y,z 
_cell_length_a                    30.20227511 
_cell_length_b                    30.49455247781124 
_cell_length_c                    24.479059015766573 
_cell_angle_alpha                 89.64882188782093 
_cell_angle_beta                  88.62408099725613 
_cell_angle_gamma                 119.87217128334807 
loop_ 
_atom_site_label 
_atom_site_type_symbol 
_atom_site_fract_x 
_atom_site_fract_y 
_atom_site_fract_z 
_atom_site_charge 
C1          C  0.03035671  0.97192957  0.22233032     0.82600
N2          N  0.98013293  0.94697180  0.23800699    -0.75700
C3          C  0.95372916  0.97218532  0.24121118     0.85100
N4          N  0.97826276  0.02290402  0.23097923    -0.75600
C5          C  0.02886154  0.04816391  0.21668870     0.85200
N6          N  0.05440013  0.02231283  0.21130996    -0.77300
C7          C  0.30434202  0.67873577  0.26029443     0.82600
N8          N  0.35634024  0.70764549  0.26342457    -0.75700
C9          C  0.38493119  0.68462065  0.27021273     0.85100
N10         N  0.36146813  0.63352102  0.27401271    -0.75600
C11         C  0.31034145  0.60492046  0.27010350     0.85200
N12         N  0.28197695  0.62759733  0.26312311    -0.77300
C13         C  0.67607311  0.63329980  0.10897516     0.82600
N14         N  0.66636327  0.58804711  0.13091938    -0.75700
C15         C  0.67533938  0.55584041  0.10074831     0.85100
N16         N  0.69363519  0.56885281  0.04896459    -0.75600
C17         C  0.70416121  0.61368690  0.02650594     0.85200
N18         N  0.69567624  0.64648513  0.05652180    -0.77300
Zn19       Zn  0.14801215  0.85236985  0.18732129     1.49700
Zn20       Zn  0.13500066  0.83805939  0.31634604     1.49400
Zn21       Zn  0.14129607  0.75295352  0.24316041     1.49100
Zn22       Zn  0.24071226  0.86449202  0.25935235     1.49500
O23         O  0.16627489  0.82625747  0.25131785    -1.81700
O24         O  0.10269858  0.88087130  0.20795277    -0.72300
O25         O  0.08586432  0.77263903  0.35256388    -0.72200
O26         O  0.11340034  0.73092922  0.16547530    -0.71700
O27         O  0.09449767  0.87178868  0.29836764    -0.72400
O28         O  0.11285777  0.79860889  0.13169854    -0.72000
O29         O  0.08408767  0.71109285  0.30254594    -0.72500
O30         O  0.27019206  0.81837335  0.25114789    -0.71900
O31         O  0.18575174  0.87834306  0.37326638    -0.72700
O32         O  0.20239762  0.74075387  0.25058070    -0.72100
O33         O  0.25957230  0.89203762  0.33637917    -0.72500
O34         O  0.27429157  0.92136276  0.20162298    -0.72400
O35         O  0.21013162  0.90896770  0.14912047    -0.72200
C36         C  0.08505173  0.88625659  0.25357329     0.79600
C37         C  0.06807765  0.72598407  0.34349748     0.80000
C38         C  0.10395670  0.75344819  0.12698421     0.79000
C39         C  0.25085791  0.77054562  0.25114637     0.79400
C40         C  0.23335358  0.89470669  0.37650888     0.80500
C41         C  0.25723723  0.93312738  0.16001355     0.79600
C42         C  0.37602269  0.05409740  0.10460918     0.82600
N43         N  0.41830051  0.08874580  0.12971453    -0.75700
C44         C  0.45316032  0.13174696  0.10344598     0.85100
N45         N  0.44644639  0.13985968  0.05052646    -0.75600
C46         C  0.40423344  0.10546915  0.02441234     0.85200
N47         N  0.36844030  0.06257014  0.05168706    -0.77300
C48         C  0.94488823  0.61356343  0.40582935     0.82600
N49         N  0.93851027  0.63128309  0.45505688    -0.75700
C50         C  0.89239310  0.60692116  0.48246640     0.85100
N51         N  0.85308078  0.56600949  0.46022734    -0.75600
C52         C  0.85912649  0.54740236  0.41254951     0.85200
N53         N  0.90507084  0.57127539  0.38511444    -0.77300
Zn54       Zn  0.59956962  0.27444765  0.27174668     1.49700
Zn55       Zn  0.66212504  0.35196346  0.17412853     1.49400
Zn56       Zn  0.66156305  0.39109566  0.29675013     1.49100
Zn57       Zn  0.72006408  0.33218028  0.27109117     1.49500
O58         O  0.66084922  0.33761447  0.25284536    -1.81700
O59         O  0.56378437  0.24021555  0.20474330    -0.72300
O60         O  0.66419748  0.41898907  0.16329012    -0.72200
O61         O  0.59960199  0.36484182  0.34771576    -0.71700
O62         O  0.59990197  0.29695429  0.13709837    -0.72400
O63         O  0.55041126  0.28730146  0.31648399    -0.72000
O64         O  0.65856881  0.44239086  0.24798907    -0.72500
O65         O  0.77236407  0.39361322  0.30975576    -0.71900
O66         O  0.72228515  0.35171319  0.13524883    -0.72700
O67         O  0.72796500  0.43043408  0.33576584    -0.72100
O68         O  0.75506490  0.32884823  0.20273479    -0.72500
O69         O  0.70007493  0.26904104  0.31613152    -0.72400
O70         O  0.61536771  0.22584262  0.31182768    -0.72200
C71         C  0.56608637  0.25336308  0.15490389     0.79600
C72         C  0.66121034  0.44961591  0.19657376     0.80000
C73         C  0.55671022  0.32416511  0.34588412     0.79000
C74         C  0.76940138  0.42888768  0.33385232     0.79400
C75         C  0.75393792  0.33909048  0.15248844     0.80500
C76         C  0.65714733  0.22950129  0.32676296     0.79600
Zn77       Zn  0.62312984  0.77535696  0.25969340     1.49700
Zn78       Zn  0.70918267  0.86230964  0.18156860     1.49400
Zn79       Zn  0.62871557  0.88355466  0.24379594     1.49100
Zn80       Zn  0.71649123  0.87455525  0.30845919     1.49500
O81         O  0.66856298  0.84853985  0.24884116    -1.81700
O82         O  0.64099414  0.73581974  0.20294857    -0.72300
O83         O  0.68478020  0.88971253  0.12268285    -0.72200
O84         O  0.55397386  0.83463078  0.25999058    -0.71700
O85         O  0.70306557  0.79827498  0.15269674    -0.72400
O86         O  0.54883680  0.75923006  0.25659068    -0.72000
O87         O  0.62902035  0.90662286  0.16459198    -0.72500
O88         O  0.70893930  0.92875979  0.34696654    -0.71900
O89         O  0.78346929  0.91144278  0.19213518    -0.72700
O90         O  0.65357517  0.94076881  0.29963043    -0.72100
O91         O  0.79050296  0.90675910  0.28186101    -0.72500
O92         O  0.70165820  0.82049127  0.36508423    -0.72400
O93         O  0.63100585  0.75381443  0.33629700    -0.72200
C94         C  0.67462035  0.75139107  0.16380652     0.79600
C95         C  0.65242261  0.90467661  0.12134364     0.80000
C96         C  0.52766141  0.78655674  0.26023253     0.79000
C97         C  0.68427450  0.95193334  0.33909740     0.79400
C98         C  0.81053064  0.92218288  0.23422270     0.80500
C99         C  0.66471718  0.77556615  0.37225563     0.79600
C100        C  0.68699820  0.06795577  0.40508149     0.82600
N101        N  0.67958657  0.10533080  0.38475890    -0.75700
C102        C  0.69579829  0.14901906  0.41213830     0.85100
N103        N  0.71924860  0.15513252  0.46011468    -0.75600
C104        C  0.72552352  0.11774593  0.48212229     0.85200
N105        N  0.70991382  0.07404778  0.45424406    -0.77300
C106        C  0.34411139  0.29623075  0.39508775     0.82600
N107        N  0.38491341  0.30171658  0.36444187    -0.75700
C108        C  0.42337429  0.29860258  0.38861670     0.85100
N109        N  0.42053644  0.28933358  0.44316034    -0.75600
C110        C  0.37933593  0.28207685  0.47351946     0.85200
N111        N  0.34126847  0.28594262  0.44961248    -0.77300
Zn112      Zn  0.17480914  0.28268937  0.20973584     1.49700
Zn113      Zn  0.08191726  0.28694289  0.27172076     1.49400
Zn114      Zn  0.19730105  0.36716908  0.29803076     1.49100
Zn115      Zn  0.15213827  0.37110938  0.18397228     1.49500
O116        O  0.15152439  0.32651480  0.24122080    -1.81700
O117        O  0.11684071  0.21037525  0.21129718    -0.72300
O118        O  0.07734439  0.30154662  0.35126015    -0.72200
O119        O  0.24759053  0.34370053  0.31548405    -0.71700
O120        O  0.05562311  0.21269532  0.26165301    -0.72400
O121        O  0.23217473  0.28525094  0.25325359    -0.73600
O122        O  0.15723054  0.36050334  0.36713152    -0.72500
O123        O  0.18631621  0.44226470  0.20867803    -0.71900
O124        O  0.03374163  0.30251091  0.23210736    -0.72700
O125        O  0.23272363  0.44172788  0.27767623    -0.72100
O126        O  0.08164888  0.35279750  0.16311538    -0.72500
O127        O  0.19074657  0.37028358  0.11678135    -0.72400
O128        O  0.20240354  0.30493093  0.13235205    -0.72200
C129        C  0.07276536  0.18827712  0.23504731     0.79600
C130        C  0.11065884  0.33331770  0.38269853     0.80000
C131        C  0.25650511  0.31069699  0.29415307     0.79000
C132        C  0.21990343  0.46526847  0.24404404     0.79400
C133        C  0.03866093  0.32697682  0.18804504     0.80500
C134        C  0.20759383  0.34130243  0.10188984     0.79600
C135        C  0.94274569  0.32376791  0.08836275     0.82600
N136        N  0.91026673  0.33353848  0.11794820    -0.75700
C137        C  0.86561419  0.32493232  0.09690979     0.85100
N138        N  0.85255407  0.30469653  0.04648209    -0.75600
C139        C  0.88471354  0.29404924  0.01704585     0.85200
N140        N  0.92994010  0.30412954  0.03801692    -0.77300
C141        C  0.98926192  0.03230027  0.76754613     0.82600
N142        N  0.04077802  0.05272348  0.76337773    -0.75700
C143        C  0.06144659  0.02232644  0.75594003     0.85100
N144        N  0.03041536  0.97150126  0.75316638    -0.75600
C145        C  0.97895174  0.95087821  0.75871856     0.85200
N146        N  0.95871027  0.98138316  0.76560954    -0.77300
Zn147      Zn  0.38430567  0.24412932  0.72335198     1.49700
Zn148      Zn  0.30831056  0.17520451  0.81841139     1.49400
Zn149      Zn  0.29870920  0.13117915  0.69836162     1.49100
Zn150      Zn  0.39440951  0.15148458  0.77215300     1.49500
O151        O  0.34656824  0.17491894  0.75307869    -1.81700
O152        O  0.36665832  0.29100156  0.76263410    -0.72300
O153        O  0.23301395  0.13728167  0.80613550    -0.72200
O154        O  0.30550349  0.17058362  0.62865422    -0.71700
O155        O  0.32440342  0.24587997  0.83679458    -0.72400
O156        O  0.37056691  0.24712486  0.64440708    -0.72000
O157        O  0.22522166  0.10046660  0.72604107    -0.72500
O158        O  0.38193793  0.09078038  0.72491720    -0.71900
O159        O  0.32185267  0.14276583  0.88327351    -0.72700
O160        O  0.31408448  0.07599249  0.67726081    -0.72100
O161        O  0.38381764  0.12902293  0.85269120    -0.72500
O162        O  0.46825293  0.21009905  0.76222287    -0.72400
O163        O  0.45938600  0.27392507  0.73115608    -0.72200
C164        C  0.34490923  0.28708135  0.80885497     0.79600
C165        C  0.20557880  0.10870290  0.76867239     0.80000
C166        C  0.33713210  0.21567215  0.61285714     0.79000
C167        C  0.34831121  0.06514925  0.68987965     0.79400
C168        C  0.35349534  0.12742435  0.89097601     0.80500
C169        C  0.48734075  0.25641575  0.74697719     0.79600
C170        C  0.31181925  0.37065507  0.89703474     0.82600
N171        N  0.32603309  0.41316353  0.86633277    -0.75700
C172        C  0.31602832  0.44943016  0.88472642     0.85100
N173        N  0.29104623  0.44258700  0.93389598    -0.75600
C174        C  0.27657828  0.39994605  0.96450844     0.85200
N175        N  0.28711128  0.36432779  0.94573036    -0.77300
C176        C  0.05013409  0.35989207  0.59813093     0.82600
N177        N  0.08255446  0.40209277  0.62567609    -0.75700
C178        C  0.12846620  0.43649815  0.60236637     0.85100
N179        N  0.14186514  0.42811082  0.55178143    -0.75600
C180        C  0.10960908  0.38629641  0.52408298     0.85200
N181        N  0.06358043  0.35253108  0.54721348    -0.77300
Zn182      Zn  0.79647629  0.08367541  0.73746132     1.49700
Zn183      Zn  0.83308286  0.19866616  0.69953580     1.49400
Zn184      Zn  0.78931513  0.15900779  0.81712065     1.49100
Zn185      Zn  0.89895764  0.17950478  0.78566316     1.49500
O186        O  0.83037123  0.15471438  0.75873524    -1.81700
O187        O  0.77065275  0.07587379  0.65890396    -0.72300
O188        O  0.79331373  0.23370452  0.72064337    -0.72200
O189        O  0.74554406  0.09292335  0.85497697    -0.71700
O190        O  0.79896870  0.15619042  0.63455861    -0.72400
O191        O  0.73806074  0.03780903  0.79191957    -0.72000
O192        O  0.74503216  0.18468823  0.79033900    -0.72500
O193        O  0.90616489  0.20818737  0.86166638    -0.71900
O194        O  0.90584101  0.25151793  0.67774605    -0.72700
O195        O  0.83222285  0.20651447  0.87346282    -0.72100
O196        O  0.95129603  0.23813707  0.73889091    -0.72500
O197        O  0.91616265  0.12341563  0.78252489    -0.72400
O198        O  0.84855391  0.06084573  0.74268557    -0.72200
C199        C  0.77536428  0.10919736  0.62369155     0.79600
C200        C  0.75609437  0.21949693  0.75502123     0.80000
C201        C  0.72599104  0.04784647  0.83870081     0.79000
C202        C  0.87715428  0.22017407  0.88838662     0.79400
C203        C  0.94858137  0.26262808  0.69806492     0.80500
C204        C  0.89284313  0.07920231  0.76259153     0.79600
C205        C  0.06064903  0.68034280  0.90574752     0.82600
N206        N  0.05896594  0.68630743  0.96094568    -0.75700
C207        C  0.09572336  0.68651187  0.99276875     0.85100
N208        N  0.13367481  0.68082932  0.96910068    -0.75600
C209        C  0.13591193  0.67559296  0.91432626     0.85200
N210        N  0.09955081  0.67582746  0.88296159    -0.77300
Zn211      Zn  0.26942639  0.65617994  0.69752131     1.49700
Zn212      Zn  0.32980843  0.67233766  0.80942565     1.49400
Zn213      Zn  0.34688267  0.61360691  0.70956665     1.49100
Zn214      Zn  0.38787600  0.73104355  0.69810902     1.49500
O215        O  0.33311052  0.66793935  0.72915588    -1.81700
O216        O  0.22238883  0.65597571  0.75678551    -0.72300
O217        O  0.32488759  0.60973458  0.84498127    -0.72200
O218        O  0.29155991  0.56354127  0.66098362    -0.71700
O219        O  0.26563160  0.67432453  0.83360867    -0.72400
O220        O  0.23327196  0.58800152  0.66102193    -0.72000
O221        O  0.34287148  0.57270537  0.77675399    -0.72500
O222        O  0.43433145  0.71893652  0.64705907    -0.71900
O223        O  0.39409300  0.73441172  0.83648837    -0.72700
O224        O  0.41601168  0.64079683  0.67005813    -0.72100
O225        O  0.43186491  0.77341950  0.75767570    -0.72500
O226        O  0.36156795  0.77181684  0.65932351    -0.72400
O227        O  0.28084773  0.71383840  0.64533454    -0.72200
C228        C  0.22585233  0.66517102  0.80758901     0.79600
C229        C  0.33162087  0.57429738  0.82697392     0.80000
C230        C  0.24778879  0.55648470  0.64851233     0.79000
C231        C  0.44391454  0.68274633  0.64453314     0.79400
C232        C  0.43092711  0.77085410  0.80955803     0.80500
C233        C  0.31844801  0.75874241  0.63893657     0.79600
Zn234      Zn  0.82392507  0.62404812  0.81957240     1.49700
Zn235      Zn  0.81816633  0.72079166  0.77917840     1.49400
Zn236      Zn  0.91302074  0.70318062  0.74012168     1.49100
Zn237      Zn  0.79975589  0.63407416  0.69599503     1.49500
O238        O  0.83907604  0.67106305  0.75862129    -1.81700
O239        O  0.78441605  0.63696998  0.87750245    -0.72300
O240        O  0.87934872  0.79066914  0.76932077    -0.72200
O241        O  0.95109202  0.68809745  0.79909006    -0.71700
O242        O  0.78934657  0.71040626  0.85772611    -0.72400
O243        O  0.88838557  0.63516297  0.85601034    -0.72000
O244        O  0.94288497  0.77876782  0.73940518    -0.72500
O245        O  0.84742206  0.64078633  0.63394540    -0.71900
O246        O  0.76194247  0.71579973  0.73073942    -0.72700
O247        O  0.92653657  0.68324456  0.66390501    -0.72100
O248        O  0.75276786  0.65853213  0.66968697    -0.72500
O249        O  0.75591098  0.55949490  0.71407757    -0.72400
O250        O  0.78065499  0.55106624  0.79645579    -0.72200
C251        C  0.77530837  0.67233795  0.88969829     0.79600
C252        C  0.92558935  0.80782361  0.75278738     0.80000
C253        C  0.93580207  0.66168110  0.84339634     0.79000
C254        C  0.89542196  0.65932807  0.62627415     0.79400
C255        C  0.74069256  0.69003024  0.68877964     0.80500
C256        C  0.75427576  0.53192719  0.75417873     0.79600
C257        C  0.64486979  0.68692588  0.58578757     0.82600
N258        N  0.60213226  0.67712272  0.61557796    -0.75700
C259        C  0.56357777  0.68027747  0.59168952     0.85100
N260        N  0.56799031  0.69325671  0.53779348    -0.75600
C261        C  0.61042024  0.70308589  0.50773965     0.85200
N262        N  0.64872500  0.69964660  0.53185067    -0.77300
C263        C  0.61351937  0.92482169  0.89845495     0.82600
N264        N  0.56907836  0.88789036  0.87885259    -0.75700
C265        C  0.53190424  0.85299652  0.91306673     0.85100
N266        N  0.53991930  0.85490318  0.96766529    -0.75600
C267        C  0.58460287  0.89165998  0.98794860     0.85200
N268        N  0.62123959  0.92657489  0.95311449    -0.77300
C269        C  0.32187864  0.95801878  0.58879572     0.82600
N270        N  0.33247864  0.92504030  0.61537760    -0.75700
C271        C  0.32703264  0.88313233  0.58976361     0.85100
N272        N  0.31233955  0.87518209  0.53702153    -0.75600
C273        C  0.30220119  0.90801614  0.50996066     0.85200
N274        N  0.30625697  0.94896307  0.53628282    -0.77300
C275        C  0.71341929  0.31740862  0.75435353     0.82600
N276        N  0.73542871  0.36780925  0.76196384    -0.75700
C277        C  0.70625256  0.39002456  0.76704927     0.85100
N278        N  0.65431268  0.36131997  0.76463322    -0.75600
C279        C  0.63214410  0.31028062  0.75806269     0.85200
N280        N  0.66191716  0.28892162  0.75319445    -0.77300
C281        C  0.72149983  0.47645994  0.75036851    -0.14000
C282        C  0.73219213  0.44469885  0.77742332    -0.29200
H283        H  0.69133487  0.46162718  0.72086852     0.15000
H284        H  0.76555779  0.46003515  0.80270754     0.15600
C285        C  0.70001579  0.69585507  0.66298482    -0.14000
C286        C  0.68668706  0.68281346  0.61100520    -0.29200
H287        H  0.68098896  0.71182326  0.68707049     0.15000
H288        H  0.70836757  0.67068314  0.58547469     0.15600
C289        C  0.48850941  0.69034511  0.61082883    -0.14000
C290        C  0.51736885  0.66990345  0.62439106    -0.29200
H291        H  0.50008286  0.71647646  0.57606184     0.15000
H292        H  0.50846066  0.64736382  0.66183463     0.15600
C293        C  0.47503924  0.81164456  0.83693085    -0.14000
C294        C  0.48378863  0.81236440  0.89062060    -0.29200
H295        H  0.50306586  0.84189132  0.81026318     0.15000
H296        H  0.45622065  0.78241338  0.91785965     0.15600
C297        C  0.31144769  0.79637015  0.60748310    -0.14000
C298        C  0.33605683  0.84595826  0.61953980    -0.29200
H299        H  0.28289890  0.78255063  0.57621461     0.15000
H300        H  0.36110416  0.85900624  0.65408072     0.15600
C301        C  0.17927262  0.67238340  0.88915609    -0.14000
C302        C  0.18219173  0.66578340  0.83524545    -0.29200
H303        H  0.20963158  0.67637287  0.91522042     0.15000
H304        H  0.15129368  0.66105387  0.80958982     0.15600
C305        C  0.02298341  0.68148777  0.86872408    -0.14000
C306        C  0.97324025  0.66223398  0.88230992    -0.29200
H307        H  0.03615436  0.69531852  0.82713417     0.15000
H308        H  0.95925121  0.64527496  0.92272570     0.15600
C309        C  0.74519696  0.29362553  0.74827358    -0.14000
C310        C  0.72471594  0.24356299  0.75525055    -0.29200
H311        H  0.78611701  0.31753901  0.74091767     0.15000
H312        H  0.68460552  0.22017351  0.76717272     0.15600
C313        C  0.65265795  0.96237675  0.85981377    -0.14000
C314        C  0.68913125  0.00756098  0.87644362    -0.29200
H315        H  0.64939435  0.95404682  0.81651575     0.15000
H316        H  0.68992328  0.01696676  0.91930695     0.15600
C317        C  0.00070335  0.32136889  0.62275717    -0.14000
C318        C  0.99652364  0.30503487  0.67465213    -0.29200
H319        H  0.96850352  0.30226231  0.59613152     0.15000
H320        H  0.03015618  0.32105201  0.69957302     0.15600
C321        C  0.16285444  0.48339905  0.63119710    -0.14000
C322        C  0.21330920  0.51026635  0.61907046    -0.29200
H323        H  0.14671395  0.49535194  0.66410123     0.15000
H324        H  0.23032237  0.49607250  0.58956433     0.15600
C325        C  0.32969020  0.49407719  0.84920983    -0.14000
C326        C  0.32396586  0.53314916  0.86523734    -0.29200
H327        H  0.34343096  0.49387677  0.80782213     0.15000
H328        H  0.31092583  0.53383396  0.90681722     0.15600
C329        C  0.57629246  0.27621365  0.75806873    -0.14000
C330        C  0.54302374  0.29188834  0.74803824    -0.29200
H331        H  0.56228592  0.23604107  0.76433585     0.15000
H332        H  0.55696168  0.33173665  0.73944046     0.15600
C333        C  0.34878027  0.02157643  0.66334857    -0.14000
C334        C  0.32408236  0.00217650  0.61664463    -0.29200
H335        H  0.37041065  0.00593280  0.68177805     0.15000
H336        H  0.30500870  0.02002094  0.59702212     0.15600
C337        C  0.34253076  0.33122291  0.82932522    -0.14000
C338        C  0.31985698  0.32951293  0.87764217    -0.29200
H339        H  0.35794775  0.36493073  0.80328878     0.15000
H340        H  0.30475209  0.29573305  0.90354443     0.15600
C341        C  0.96074476  0.86285192  0.74956745    -0.14000
C342        C  0.94437729  0.89581848  0.75880707    -0.29200
H343        H  0.00085685  0.87640675  0.73988252     0.15000
H344        H  0.90405982  0.88205288  0.76746795     0.15600
C345        C  0.96652915  0.06527769  0.77191098    -0.14000
C346        C  0.91684365  0.04741242  0.76216890    -0.29200
H347        H  0.99127040  0.10504146  0.78045094     0.15000
H348        H  0.89290306  0.00812758  0.75114829     0.15600
C349        C  0.11710903  0.04395213  0.74945351    -0.14000
C350        C  0.14979630  0.08618126  0.77492824    -0.29200
H351        H  0.13140449  0.02357622  0.72532217     0.15000
H352        H  0.13518004  0.10410878  0.80256487     0.15600
C353        C  0.86842817  0.26761124  0.96495553    -0.14000
C354        C  0.89590209  0.25035473  0.93791123    -0.29200
H355        H  0.83179773  0.26012218  0.94989206     0.15000
H356        H  0.93260249  0.25785701  0.95273616     0.15600
C357        C  0.09446097  0.33929856  0.43810219    -0.14000
C358        C  0.12537373  0.37819056  0.46941331    -0.29200
H359        H  0.05584366  0.31240468  0.45247620     0.15000
H360        H  0.16347346  0.40572523  0.45417663     0.15600
C361        C  0.24848649  0.39166100  0.01721870    -0.14000
C362        C  0.23441762  0.34997906  0.04849685    -0.29200
H363        H  0.23960224  0.42037783  0.03068369     0.15000
H364        H  0.24414322  0.32173929  0.03542788     0.15600
C365        C  0.99311038  0.32464747  0.16535628    -0.14000
C366        C  0.99012061  0.33113245  0.11166033    -0.29200
H367        H  0.96010529  0.31373572  0.19253032     0.15000
H368        H  0.02144498  0.33753093  0.08380560     0.15600
C369        C  0.37709073  0.27022556  0.53198728    -0.14000
C370        C  0.33560066  0.23151125  0.55626741    -0.29200
H371        H  0.41250461  0.28967358  0.55382885     0.15000
H372        H  0.30170739  0.20884058  0.53288775     0.15600
C373        C  0.30447401  0.30456270  0.37086082    -0.14000
C374        C  0.29597108  0.30142114  0.31703521    -0.29200
H375        H  0.28085646  0.31270824  0.39844430     0.15000
H376        H  0.31652522  0.28935827  0.28965105     0.15600
C377        C  0.75115009  0.12794496  0.53509004    -0.14000
C378        C  0.75200536  0.09351565  0.56919386    -0.29200
H379        H  0.76825477  0.16694308  0.54799155     0.15000
H380        H  0.73365755  0.05395291  0.55825967     0.15600
C381        C  0.66055836  0.74971103  0.42489052    -0.14000
C382        C  0.61502911  0.71972140  0.45000768    -0.29200
H383        H  0.69539015  0.76125603  0.44687484     0.15000
H384        H  0.58030678  0.71216701  0.42987154     0.15600
C385        C  0.59407445  0.89104608  0.04706365    -0.14000
C386        C  0.64111817  0.91754636  0.06726508    -0.29200
H387        H  0.56279202  0.86388445  0.07349959     0.15000
H388        H  0.67339065  0.94123952  0.03995938     0.15600
C389        C  0.69286251  0.99280721  0.37737576    -0.14000
C390        C  0.67302742  0.02322488  0.37078249    -0.29200
H391        H  0.71838449  0.99944371  0.41079029     0.15000
H392        H  0.64908281  0.01782761  0.33616673     0.15600
C393        C  0.51316091  0.31993831  0.37828530    -0.14000
C394        C  0.46750314  0.30404102  0.35591449    -0.29200
H395        H  0.51942541  0.33277496  0.42016636     0.15000
H396        H  0.46282710  0.29578677  0.31262363     0.15600
C397        C  0.65579265  0.18597142  0.35504781    -0.14000
C398        C  0.69321567  0.19198743  0.38792604    -0.29200
H399        H  0.62381613  0.14836623  0.34837682     0.15000
H400        H  0.72298563  0.22987220  0.39785724     0.15600
C401        C  0.78979860  0.33517688  0.11352635    -0.14000
C402        C  0.83050374  0.33349238  0.13183760    -0.29200
H403        H  0.78250219  0.33299044  0.07010890     0.15000
H404        H  0.83871031  0.33841249  0.17508259     0.15600
C405        C  0.88099119  0.62437121  0.53427493    -0.14000
C406        C  0.91457819  0.65153935  0.57259325    -0.29200
H407        H  0.84052164  0.60958039  0.54312519     0.15000
H408        H  0.95511407  0.66546024  0.56568952     0.15600
C409        C  0.81586975  0.46992165  0.35793335    -0.14000
C410        C  0.81377967  0.50452289  0.38960141    -0.29200
H411        H  0.85236506  0.47218078  0.34889560     0.15000
H412        H  0.77688804  0.50037800  0.40115543     0.15600
C413        C  0.39917021  0.11551794  0.96644098    -0.14000
C414        C  0.35521164  0.10841645  0.94625832    -0.29200
H415        H  0.43409228  0.13531605  0.94145210     0.15000
H416        H  0.32130745  0.09358733  0.97289038     0.15600
C417        C  0.49610702  0.16920492  0.13466577    -0.14000
C418        C  0.52815908  0.21698245  0.11747086    -0.29200
H419        H  0.49934490  0.15726564  0.17560932     0.15000
H420        H  0.52561526  0.22962014  0.07666740     0.15600
C421        C  0.09855891  0.69704283  0.05211368    -0.14000
C422        C  0.08476237  0.72897689  0.07379304    -0.29200
H423        H  0.12083405  0.68550584  0.07638170     0.15000
H424        H  0.06689408  0.74445491  0.04791978     0.15600
C425        C  0.25732289  0.91462180  0.42934803    -0.14000
C426        C  0.28612159  0.89781604  0.45258709    -0.29200
H427        H  0.24480747  0.93669428  0.45304977     0.15000
H428        H  0.29396259  0.87147388  0.43050897     0.15600
C429        C  0.02721867  0.69047973  0.38238808    -0.14000
C430        C  0.99224933  0.64265768  0.37117917    -0.29200
H431        H  0.02223394  0.70687469  0.41972064     0.15000
H432        H  0.99540841  0.62662335  0.33275669     0.15600
C433        C  0.29214795  0.97604214  0.12329258    -0.14000
C434        C  0.34031047  0.00821677  0.13674711    -0.29200
H435        H  0.27731253  0.98256611  0.08597018     0.15000
H436        H  0.35393260  0.00234110  0.17531127     0.15600
C437        C  0.72587830  0.62394265  0.97028871    -0.14000
C438        C  0.74834143  0.66841385  0.94269852    -0.29200
H439        H  0.72592280  0.59175437  0.95146710     0.15000
H440        H  0.74848958  0.70134573  0.95952773     0.15600
C441        C  0.66799900  0.50756881  0.12269603    -0.14000
C442        C  0.66177078  0.49547583  0.17600986    -0.29200
H443        H  0.67160581  0.48256889  0.09372501     0.15000
H444        H  0.65952975  0.52088492  0.20543763     0.15600
C445        C  0.68202671  0.71572656  0.12903582    -0.14000
C446        C  0.66518621  0.66720562  0.14309167    -0.29200
H447        H  0.70475964  0.73108106  0.09144401     0.15000
H448        H  0.64449232  0.65230900  0.18186468     0.15600
C449        C  0.28657106  0.54957985  0.27169762    -0.14000
C450        C  0.24339216  0.52049899  0.24560197    -0.29200
H451        H  0.30657329  0.53276590  0.29142051     0.15000
H452        H  0.22553393  0.53790902  0.22274723     0.15600
C453        C  0.44138769  0.71240005  0.27086787    -0.14000
C454        C  0.47114345  0.76253830  0.26385801    -0.29200
H455        H  0.45942838  0.68944098  0.27555753     0.15000
H456        H  0.45391277  0.78626697  0.25986350     0.15600
C457        C  0.27036370  0.70060642  0.25455502    -0.14000
C458        C  0.28659848  0.75033918  0.25307261    -0.29200
H459        H  0.22963128  0.67402992  0.25286464     0.15000
H460        H  0.32723367  0.77721307  0.25487455     0.15600
C461        C  0.89851527  0.94409730  0.25435434    -0.14000
C462        C  0.86627899  0.95355761  0.22674795    -0.29200
H463        H  0.88364006  0.91198863  0.28271328     0.15000
H464        H  0.88105555  0.98205271  0.19407542     0.15600
C465        C  0.04052865  0.13284712  0.23298487    -0.14000
C466        C  0.05769211  0.10368873  0.21098076    -0.29200
H467        H  0.00295178  0.11549079  0.25305079     0.15000
H468        H  0.09605688  0.12101278  0.19287202     0.15600
C469        C  0.05941363  0.94525167  0.21805936    -0.14000
C470        C  0.05292984  0.90987942  0.25510487    -0.29200
H471        H  0.08976746  0.95800296  0.18689603     0.15000
H472        H  0.02609245  0.90084462  0.28944433     0.15600
loop_ 
_geom_bond_atom_site_label_1 
_geom_bond_atom_site_label_2 
_geom_bond_distance 
_geom_bond_site_symmetry_2 
_ccdc_geom_bond_type 
C1            N2   1.359   1_455  A
C1            N6   1.355   1_565  A
C1          C469   1.467       .  S
N2            C3   1.357       .  A
C3            N4   1.360   1_565  A
C3          C461   1.472       .  S
N4            C5   1.360   1_655  A
C5            N6   1.355       .  A
C5          C466   1.472       .  S
C7            N8   1.370       .  A
C7           N12   1.356       .  A
C7          C457   1.485       .  S
N8            C9   1.370       .  A
C9           N10   1.354       .  A
C9          C453   1.479       .  S
N10          C11   1.349       .  A
C11          N12   1.355       .  A
C11         C449   1.468       .  S
C13          N14   1.363       .  A
C13          N18   1.371       .  A
C13         C446   1.487       .  S
N14          C15   1.359       .  A
C15          N16   1.346       .  A
C15         C441   1.471       .  S
N16          C17   1.350       .  A
C17          N18   1.364       .  A
C17         C437   1.473   1_554  S
Zn19         O23   1.964       .  S
Zn19         O24   2.010       .  S
Zn19         O28   2.008       .  S
Zn19         O35   2.011       .  S
Zn20         O23   1.957       .  S
Zn20         O25   1.983       .  S
Zn20         O27   2.005       .  S
Zn20         O31   2.012       .  S
Zn21         O23   1.985       .  S
Zn21         O26   2.075       .  S
Zn21         O29   2.095       .  S
Zn21         O32   2.068       .  S
Zn22         O23   1.966       .  S
Zn22         O30   2.013       .  S
Zn22         O33   2.044       .  S
Zn22         O34   2.045       .  S
O24          C36   1.272       .  A
O25          C37   1.269       .  A
O26          C38   1.281       .  A
O27          C36   1.270       .  A
O28          C38   1.272       .  A
O29          C37   1.283       .  A
O30          C39   1.273       .  A
O31          C40   1.270       .  A
O32          C39   1.282       .  A
O33          C40   1.275       .  A
O34          C41   1.279       .  A
O35          C41   1.271       .  A
C36         C470   1.468       .  S
C37         C429   1.484       .  S
C38         C422   1.485       .  S
C39         C458   1.487       .  S
C40         C425   1.477       .  S
C41         C433   1.483       .  S
C42          N43   1.351       .  A
C42          N47   1.366       .  A
C42         C434   1.477       .  S
N43          C44   1.350       .  A
C44          N45   1.356       .  A
C44         C417   1.468       .  S
N45          C46   1.360       .  A
C46          N47   1.368       .  A
C46         C413   1.477   1_554  S
C48          N49   1.372       .  A
C48          N53   1.363       .  A
C48         C430   1.490       .  S
N49          C50   1.364       .  A
C50          N51   1.351       .  A
C50         C405   1.476       .  S
N51          C52   1.349       .  A
C52          N53   1.360       .  A
C52         C410   1.471       .  S
Zn54         O58   1.936       .  S
Zn54         O59   1.982       .  S
Zn54         O63   2.016       .  S
Zn54         O70   2.024       .  S
Zn55         O58   1.969       .  S
Zn55         O60   2.029       .  S
Zn55         O62   2.032       .  S
Zn55         O66   2.034       .  S
Zn56         O58   1.950       .  S
Zn56         O61   2.021       .  S
Zn56         O64   2.001       .  S
Zn56         O67   2.021       .  S
Zn57         O58   1.939       .  S
Zn57         O65   2.012       .  S
Zn57         O68   1.988       .  S
Zn57         O69   2.018       .  S
O59          C71   1.271       .  A
O60          C72   1.278       .  A
O61          C73   1.273       .  A
O62          C71   1.272       .  A
O63          C73   1.273       .  A
O64          C72   1.270       .  A
O65          C74   1.270       .  A
O66          C75   1.274       .  A
O67          C74   1.275       .  A
O68          C75   1.273       .  A
O69          C76   1.275       .  A
O70          C76   1.273       .  A
C71         C418   1.476       .  S
C72         C442   1.475       .  S
C73         C393   1.468       .  S
C74         C409   1.477       .  S
C75         C401   1.476       .  S
C76         C397   1.475       .  S
Zn77         O81   1.964       .  S
Zn77         O82   2.075       .  S
Zn77         O86   2.047       .  S
Zn77         O93   2.041       .  S
Zn78         O81   1.943       .  S
Zn78         O83   1.992       .  S
Zn78         O85   2.003       .  S
Zn78         O89   2.007       .  S
Zn79         O81   1.972       .  S
Zn79         O84   2.018       .  S
Zn79         O87   2.057       .  S
Zn79         O90   2.061       .  S
Zn80         O81   1.956       .  S
Zn80         O88   2.014       .  S
Zn80         O91   2.030       .  S
Zn80         O92   2.012       .  S
O82          C94   1.282       .  A
O83          C95   1.269       .  A
O84          C96   1.273       .  A
O85          C94   1.271       .  A
O86          C96   1.281       .  A
O87          C95   1.277       .  A
O88          C97   1.273       .  A
O89          C98   1.271       .  A
O90          C97   1.281       .  A
O91          C98   1.274       .  A
O92          C99   1.272       .  A
O93          C99   1.276       .  A
C94         C445   1.484       .  S
C95         C386   1.474       .  S
C96         C454   1.485       .  S
C97         C389   1.484       .  S
C98         C462   1.470       .  S
C99         C381   1.476       .  S
C100        N101   1.360       .  A
C100        N105   1.370       .  A
C100        C390   1.484       .  S
N101        C102   1.357       .  A
C102        N103   1.352       .  A
C102        C398   1.473       .  S
N103        C104   1.356       .  A
C104        N105   1.365       .  A
C104        C377   1.480       .  S
C106        N107   1.363       .  A
C106        N111   1.360       .  A
C106        C373   1.478       .  S
N107        C108   1.360       .  A
C108        N109   1.355       .  A
C108        C394   1.474       .  S
N109        C110   1.352       .  A
C110        N111   1.358       .  A
C110        C369   1.466       .  S
Zn112       O116   1.949       .  S
Zn112       O117   2.020       .  S
Zn112       O121   2.024       .  S
Zn112       O128   2.022       .  S
Zn113       O116   1.954       .  S
Zn113       O118   2.017       .  S
Zn113       O120   2.011       .  S
Zn113       O124   2.008       .  S
Zn114       O116   1.946       .  S
Zn114       O119   2.028       .  S
Zn114       O122   2.005       .  S
Zn114       O125   2.025       .  S
Zn115       O116   1.940       .  S
Zn115       O123   1.989       .  S
Zn115       O126   1.994       .  S
Zn115       O127   2.001       .  S
O117        C129   1.276       .  A
O118        C130   1.272       .  A
O119        C131   1.276       .  A
O120        C129   1.273       .  A
O121        C131   1.273       .  A
O122        C130   1.273       .  A
O123        C132   1.269       .  A
O124        C133   1.270       .  A
O125        C132   1.276       .  A
O126        C133   1.271       .  A
O127        C134   1.271       .  A
O128        C134   1.274       .  A
C129        C465   1.474       .  S
C130        C357   1.474       .  S
C131        C374   1.477       .  S
C132        C450   1.467       .  S
C133        C365   1.465   1_455  S
C134        C362   1.472       .  S
C135        N136   1.355       .  A
C135        N140   1.352       .  A
C135        C366   1.464       .  S
N136        C137   1.355       .  A
C137        N138   1.360       .  A
C137        C402   1.469       .  S
N138        C139   1.361       .  A
C139        N140   1.357       .  A
C139        C353   1.472   1_554  S
C141        N142   1.358   1_655  A
C141        N146   1.357   1_545  A
C141        C345   1.476       .  S
N142        C143   1.362       .  A
C143        N144   1.357   1_545  A
C143        C349   1.472       .  S
N144        C145   1.358   1_455  A
C145        N146   1.353       .  A
C145        C342   1.471       .  S
Zn147       O151   1.957       .  S
Zn147       O152   2.001       .  S
Zn147       O156   1.997       .  S
Zn147       O163   1.994       .  S
Zn148       O151   1.953       .  S
Zn148       O153   2.004       .  S
Zn148       O155   2.016       .  S
Zn148       O159   2.020       .  S
Zn149       O151   1.964       .  S
Zn149       O154   2.027       .  S
Zn149       O157   2.028       .  S
Zn149       O160   2.023       .  S
Zn150       O151   1.968       .  S
Zn150       O158   2.064       .  S
Zn150       O161   2.048       .  S
Zn150       O162   2.056       .  S
O152        C164   1.269       .  A
O153        C165   1.270       .  A
O154        C166   1.273       .  A
O155        C164   1.274       .  A
O156        C166   1.272       .  A
O157        C165   1.275       .  A
O158        C167   1.280       .  A
O159        C168   1.273       .  A
O160        C167   1.276       .  A
O161        C168   1.278       .  A
O162        C169   1.280       .  A
O163        C169   1.269       .  A
C164        C337   1.473       .  S
C165        C350   1.472       .  S
C166        C370   1.474       .  S
C167        C333   1.489       .  S
C168        C414   1.481       .  S
C169        C330   1.480       .  S
C170        N171   1.359       .  A
C170        N175   1.351       .  A
C170        C338   1.471       .  S
N171        C172   1.360       .  A
C172        N173   1.363       .  A
C172        C325   1.479       .  S
N173        C174   1.360       .  A
C174        N175   1.355       .  A
C174        C361   1.476   1_556  S
C176        N177   1.363       .  A
C176        N181   1.356       .  A
C176        C317   1.474       .  S
N177        C178   1.362       .  A
C178        N179   1.358       .  A
C178        C321   1.480       .  S
N179        C180   1.356       .  A
C180        N181   1.357       .  A
C180        C358   1.473       .  S
Zn182       O186   1.960       .  S
Zn182       O187   2.063       .  S
Zn182       O191   2.062       .  S
Zn182       O198   2.018       .  S
Zn183       O186   1.940       .  S
Zn183       O188   2.026       .  S
Zn183       O190   2.011       .  S
Zn183       O194   2.029       .  S
Zn184       O186   1.917       .  S
Zn184       O189   1.983       .  S
Zn184       O192   1.978       .  S
Zn184       O195   1.980       .  S
Zn185       O186   1.952       .  S
Zn185       O193   2.031       .  S
Zn185       O196   2.020       .  S
Zn185       O197   2.022       .  S
O187        C199   1.279       .  A
O188        C200   1.275       .  A
O189        C201   1.267       .  A
O190        C199   1.276       .  A
O191        C201   1.278       .  A
O192        C200   1.268       .  A
O193        C202   1.274       .  A
O194        C203   1.275       .  A
O195        C202   1.269       .  A
O196        C203   1.272       .  A
O197        C204   1.277       .  A
O198        C204   1.276       .  A
C199        C378   1.491       .  S
C200        C310   1.459       .  S
C201        C314   1.475       .  S
C202        C354   1.471       .  S
C203        C318   1.478       .  S
C204        C346   1.471       .  S
C205        N206   1.368       .  A
C205        N210   1.357       .  A
C205        C305   1.485       .  S
N206        C207   1.369       .  A
C207        N208   1.359       .  A
C207        C421   1.485   1_556  S
N208        C209   1.355       .  A
C209        N210   1.358       .  A
C209        C301   1.481       .  S
Zn211       O215   1.953       .  S
Zn211       O216   2.004       .  S
Zn211       O220   2.030       .  S
Zn211       O227   2.047       .  S
Zn212       O215   1.974       .  S
Zn212       O217   2.029       .  S
Zn212       O219   2.043       .  S
Zn212       O223   2.051       .  S
Zn213       O215   1.958       .  S
Zn213       O218   2.028       .  S
Zn213       O221   2.022       .  S
Zn213       O224   2.037       .  S
Zn214       O215   1.941       .  S
Zn214       O222   2.026       .  S
Zn214       O225   1.992       .  S
Zn214       O226   2.021       .  S
O216        C228   1.272       .  A
O217        C229   1.274       .  A
O218        C230   1.274       .  A
O219        C228   1.277       .  A
O220        C230   1.275       .  A
O221        C229   1.275       .  A
O222        C231   1.274       .  A
O223        C232   1.277       .  A
O224        C231   1.276       .  A
O225        C232   1.271       .  A
O226        C233   1.273       .  A
O227        C233   1.276       .  A
C228        C302   1.476       .  S
C229        C326   1.480       .  S
C230        C322   1.475       .  S
C231        C289   1.477       .  S
C232        C293   1.474       .  S
C233        C297   1.481       .  S
Zn234       O238   1.944       .  S
Zn234       O239   1.996       .  S
Zn234       O243   2.032       .  S
Zn234       O250   2.033       .  S
Zn235       O238   1.975       .  S
Zn235       O240   2.016       .  S
Zn235       O242   2.048       .  S
Zn235       O246   2.038       .  S
Zn236       O238   1.980       .  S
Zn236       O241   2.053       .  S
Zn236       O244   2.014       .  S
Zn236       O247   2.060       .  S
Zn237       O238   1.951       .  S
Zn237       O245   2.005       .  S
Zn237       O248   2.019       .  S
Zn237       O249   2.020       .  S
O239        C251   1.274       .  A
O240        C252   1.277       .  A
O241        C253   1.278       .  A
O242        C251   1.274       .  A
O243        C253   1.274       .  A
O244        C252   1.273       .  A
O245        C254   1.275       .  A
O246        C255   1.274       .  A
O247        C254   1.277       .  A
O248        C255   1.273       .  A
O249        C256   1.272       .  A
O250        C256   1.277       .  A
C251        C438   1.487       .  S
C252        C341   1.473       .  S
C253        C306   1.490       .  S
C254        C406   1.491       .  S
C255        C285   1.481       .  S
C256        C281   1.479       .  S
C257        N258   1.362       .  A
C257        N262   1.360       .  A
C257        C286   1.479       .  S
N258        C259   1.360       .  A
C259        N260   1.359       .  A
C259        C290   1.481       .  S
N260        C261   1.357       .  A
C261        N262   1.360       .  A
C261        C382   1.478       .  S
C263        N264   1.353       .  A
C263        N268   1.360       .  A
C263        C313   1.479       .  S
N264        C265   1.359       .  A
C265        N266   1.360       .  A
C265        C294   1.484       .  S
N266        C267   1.362       .  A
C267        N268   1.362       .  A
C267        C385   1.484   1_556  S
C269        N270   1.364       .  A
C269        N274   1.362       .  A
C269        C334   1.485   1_565  S
N270        C271   1.363       .  A
C271        N272   1.359       .  A
C271        C298   1.483       .  S
N272        C273   1.357       .  A
C273        N274   1.360       .  A
C273        C426   1.481       .  S
C275        N276   1.353       .  A
C275        N280   1.353       .  A
C275        C309   1.469       .  S
N276        C277   1.357       .  A
C277        N278   1.367       .  A
C277        C282   1.474       .  S
N278        C279   1.366       .  A
C279        N280   1.351       .  A
C279        C329   1.476       .  S
C281        C282   1.340       .  D
C281        H283   1.087       .  S
C282        H284   1.087       .  S
C285        C286   1.346       .  D
C285        H287   1.087       .  S
C286        H288   1.087       .  S
C289        C290   1.346       .  D
C289        H291   1.087       .  S
C290        H292   1.087       .  S
C293        C294   1.345       .  D
C293        H295   1.087       .  S
C294        H296   1.086       .  S
C297        C298   1.350       .  D
C297        H299   1.087       .  S
C298        H300   1.087       .  S
C301        C302   1.344       .  D
C301        H303   1.087       .  S
C302        H304   1.087       .  S
C305        C306   1.344   1_455  D
C305        H307   1.087       .  S
C306        H308   1.087       .  S
C309        C310   1.339       .  D
C309        H311   1.087       .  S
C310        H312   1.087       .  S
C313        C314   1.339   1_565  D
C313        H315   1.087       .  S
C314        H316   1.087       .  S
C317        C318   1.342   1_455  D
C317        H319   1.087   1_455  S
C318        H320   1.087   1_655  S
C321        C322   1.347       .  D
C321        H323   1.087       .  S
C322        H324   1.087       .  S
C325        C326   1.346       .  D
C325        H327   1.087       .  S
C326        H328   1.087       .  S
C329        C330   1.337       .  D
C329        H331   1.087       .  S
C330        H332   1.087       .  S
C333        C334   1.350       .  D
C333        H335   1.086       .  S
C334        H336   1.087       .  S
C337        C338   1.340       .  D
C337        H339   1.087       .  S
C338        H340   1.087       .  S
C341        C342   1.341       .  D
C341        H343   1.087   1_655  S
C342        H344   1.087       .  S
C345        C346   1.345       .  D
C345        H347   1.086       .  S
C346        H348   1.087       .  S
C349        C350   1.340       .  D
C349        H351   1.087       .  S
C350        H352   1.087       .  S
C353        C354   1.348       .  D
C353        H355   1.087       .  S
C354        H356   1.086       .  S
C357        C358   1.345       .  D
C357        H359   1.087       .  S
C358        H360   1.087       .  S
C361        C362   1.348       .  D
C361        H363   1.087       .  S
C362        H364   1.087       .  S
C365        C366   1.340       .  D
C365        H367   1.087       .  S
C366        H368   1.087   1_655  S
C369        C370   1.341       .  D
C369        H371   1.087       .  S
C370        H372   1.087       .  S
C373        C374   1.343       .  D
C373        H375   1.087       .  S
C374        H376   1.087       .  S
C377        C378   1.348       .  D
C377        H379   1.087       .  S
C378        H380   1.086       .  S
C381        C382   1.344       .  D
C381        H383   1.087       .  S
C382        H384   1.087       .  S
C385        C386   1.346       .  D
C385        H387   1.087       .  S
C386        H388   1.086       .  S
C389        C390   1.342   1_565  D
C389        H391   1.087       .  S
C390        H392   1.087       .  S
C393        C394   1.345       .  D
C393        H395   1.087       .  S
C394        H396   1.087       .  S
C397        C398   1.341       .  D
C397        H399   1.087       .  S
C398        H400   1.087       .  S
C401        C402   1.343       .  D
C401        H403   1.086       .  S
C402        H404   1.087       .  S
C405        C406   1.347       .  D
C405        H407   1.087       .  S
C406        H408   1.086       .  S
C409        C410   1.339       .  D
C409        H411   1.087       .  S
C410        H412   1.087       .  S
C413        C414   1.342       .  D
C413        H415   1.087       .  S
C414        H416   1.087       .  S
C417        C418   1.343       .  D
C417        H419   1.087       .  S
C418        H420   1.087       .  S
C421        C422   1.343       .  D
C421        H423   1.087       .  S
C422        H424   1.087       .  S
C425        C426   1.344       .  D
C425        H427   1.086       .  S
C426        H428   1.087       .  S
C429        C430   1.342   1_455  D
C429        H431   1.087       .  S
C430        H432   1.087       .  S
C433        C434   1.339   1_565  D
C433        H435   1.087       .  S
C434        H436   1.087       .  S
C437        C438   1.344       .  D
C437        H439   1.087       .  S
C438        H440   1.086       .  S
C441        C442   1.337       .  D
C441        H443   1.087       .  S
C442        H444   1.087       .  S
C445        C446   1.342       .  D
C445        H447   1.087       .  S
C446        H448   1.087       .  S
C449        C450   1.338       .  D
C449        H451   1.086       .  S
C450        H452   1.087       .  S
C453        C454   1.340       .  D
C453        H455   1.087       .  S
C454        H456   1.087       .  S
C457        C458   1.341       .  D
C457        H459   1.087       .  S
C458        H460   1.087       .  S
C461        C462   1.340       .  D
C461        H463   1.087       .  S
C462        H464   1.087       .  S
C465        C466   1.342       .  D
C465        H467   1.087       .  S
C466        H468   1.087       .  S
C469        C470   1.339       .  D
C469        H471   1.087       .  S
C470        H472   1.087       .  S
