geometry optimzed in LAMMPS
_audit_creation_date              2020-12-01 
_audit_creation_method            'lammps2cif' 
_symmetry_space_group_name_H-M    'P1' 
_symmetry_Int_Tables_number       1 
_symmetry_cell_setting            triclinic 
loop_ 
_symmetry_equiv_pos_as_xyz 
  x,y,z 
_cell_length_a                    30.47364825 
_cell_length_b                    30.359703580234203 
_cell_length_c                    37.49835234423063 
_cell_angle_alpha                 90.1266431307811 
_cell_angle_beta                  89.78557773584822 
_cell_angle_gamma                 120.37689478920554 
loop_ 
_atom_site_label 
_atom_site_type_symbol 
_atom_site_fract_x 
_atom_site_fract_y 
_atom_site_fract_z 
_atom_site_charge 
O1          O  0.25929721  0.44903718  0.03365991    -0.71400
O2          O  0.31132818  0.05355172  0.46328069    -0.71700
O3          O  0.31304807  0.05344366  0.03394020    -0.71500
O4          O  0.26096068  0.44926520  0.46307401    -0.72700
O5          O  0.18950529  0.44877310  0.46350133    -0.71500
O6          O  0.24162699  0.05302203  0.03400682    -0.71500
O7          O  0.23987604  0.05305616  0.46336648    -0.71400
O8          O  0.18792338  0.44870502  0.03409683    -0.71600
V9          V  0.28477762  0.00133777  0.49849624     1.35200
V10         V  0.21614192  0.50091001  0.99874411     1.35200
C11         C  0.21338342  0.42869446  0.04407714     0.77800
C12         C  0.28543793  0.07334045  0.45299160     0.77900
C13         C  0.28750791  0.07331242  0.04425577     0.77700
C14         C  0.21531716  0.42887603  0.45307865     0.77700
C15         C  0.11027598  0.30435371  0.41658841     0.03500
C16         C  0.13721965  0.35148194  0.43380437    -0.12700
C17         C  0.19040660  0.38002406  0.43292645     0.01000
C18         C  0.21733408  0.35883152  0.41614275    -0.11200
C19         C  0.19033301  0.31037044  0.39938631     0.03500
C20         C  0.13715626  0.28493081  0.39881230    -0.10600
H21         H  0.11647500  0.36565228  0.44879493     0.09100
H22         H  0.25852259  0.37975213  0.41599159     0.06600
H23         H  0.11646526  0.25041168  0.38319762     0.06400
C24         C  0.39031747  0.19676952  0.41474815     0.03500
C25         C  0.36333367  0.15030951  0.43279914    -0.12700
C26         C  0.31016307  0.12180297  0.43232200     0.01000
C27         C  0.28321511  0.14266699  0.41531754    -0.11200
C28         C  0.31022201  0.19058163  0.39778624     0.03500
C29         C  0.36338272  0.21555666  0.39647364    -0.10600
H30         H  0.38402454  0.13665562  0.44821567     0.09100
H31         H  0.24203143  0.12198706  0.41567032     0.06600
H32         H  0.38391922  0.24933817  0.38015398     0.06400
O33         O  0.44862302  0.26042773  0.13061259    -0.71400
O34         O  0.05298162  0.31160139  0.20065476    -0.71700
O35         O  0.05267282  0.31311070  0.12993837    -0.71500
O36         O  0.44897587  0.26204900  0.20128383    -0.71500
O37         O  0.44766848  0.18993991  0.20093210    -0.71500
O38         O  0.05139601  0.24100704  0.12998706    -0.71500
O39         O  0.05170708  0.23950750  0.20071943    -0.71400
O40         O  0.44737677  0.18833669  0.13023443    -0.71600
V41         V  0.00082550  0.28540092  0.16562822     1.35200
V42         V  0.49954256  0.21609777  0.16547575     1.35200
C43         C  0.42802380  0.21440995  0.12011105     0.77800
C44         C  0.07236286  0.28531670  0.21098293     0.77900
C45         C  0.07191817  0.28700363  0.11947380     0.77700
C46         C  0.42830688  0.21623085  0.21148315     0.77700
C47         C  0.30649148  0.19742030  0.08075463     0.03500
C48         C  0.35227574  0.21663043  0.09936801    -0.12700
C49         C  0.37995513  0.19119928  0.09923719     0.01000
C50         C  0.35878971  0.14297516  0.08215887    -0.11200
C51         C  0.31123629  0.12201940  0.06461223     0.03500
C52         C  0.28691958  0.15060904  0.06319328    -0.10600
H53         H  0.36586428  0.25101500  0.11507457     0.09100
H54         H  0.37890696  0.12206992  0.08258668     0.06600
H55         H  0.25276210  0.13670027  0.04739697     0.06400
C56         C  0.19352376  0.30396373  0.07982704     0.03500
C57         C  0.14736953  0.28453426  0.09813073    -0.12700
C58         C  0.11994418  0.31018379  0.09833107     0.01000
C59         C  0.14152668  0.35865307  0.08158500    -0.11200
C60         C  0.18940775  0.37977079  0.06420244     0.03500
C61         C  0.21373959  0.35115485  0.06273571    -0.10600
H62         H  0.13346398  0.24991470  0.11355297     0.09100
H63         H  0.12152423  0.37967169  0.08220356     0.06600
H64         H  0.24846435  0.36534368  0.04738125     0.06400
O65         O  0.31114144  0.26022057  0.36726757    -0.71400
O66         O  0.25839246  0.31186672  0.29755538    -0.71700
O67         O  0.26059261  0.31320046  0.36821367    -0.71500
O68         O  0.31241388  0.26230967  0.29663366    -0.71500
O69         O  0.24095401  0.19028135  0.29681946    -0.71500
O70         O  0.18925529  0.24103118  0.36825699    -0.71500
O71         O  0.18697476  0.23979775  0.29757838    -0.71400
O72         O  0.23975746  0.18809947  0.36746318    -0.71600
V73         V  0.28423091  0.28550568  0.33241617     1.35200
V74         V  0.21563884  0.21621909  0.33252327     1.35200
C75         C  0.28537814  0.21406919  0.37752179     0.77800
C76         C  0.21244753  0.28558613  0.28735286     0.77900
C77         C  0.21510166  0.28707437  0.37867920     0.77700
C78         C  0.28684987  0.21655102  0.28636951     0.77700
C79         C  0.30575534  0.11135776  0.25074036     0.03500
C80         C  0.35192196  0.13817028  0.23248562    -0.12700
C81         C  0.37993674  0.19162271  0.23228879     0.01000
C82         C  0.35872580  0.21880372  0.24885697    -0.11200
C83         C  0.31060948  0.19178723  0.26607000     0.03500
C84         C  0.28578072  0.13846297  0.26752426    -0.10600
H85         H  0.36556420  0.11707377  0.21735663     0.09100
H86         H  0.37920208  0.26013479  0.24831887     0.06600
H87         H  0.25099293  0.11770730  0.28284097     0.06400
C88         C  0.19410485  0.39047849  0.25051924     0.03500
C89         C  0.14891735  0.36338455  0.23138337    -0.12700
C90         C  0.12058322  0.30996705  0.23178270     0.01000
C91         C  0.14114957  0.28293891  0.24921487    -0.11200
C92         C  0.18871643  0.31016428  0.26695868     0.03500
C93         C  0.21327424  0.36349702  0.26836450    -0.10600
H94         H  0.13617359  0.38413146  0.21515851     0.09100
H95         H  0.12064820  0.24160428  0.24889800     0.06600
H96         H  0.24729973  0.38428554  0.28430358     0.06400
C97         C  0.27753179  0.05481446  0.25165914    -0.05100
C98         C  0.22413325  0.02806045  0.25056521    -0.32500
C99         C  0.19641253  0.47488529  0.25164841     0.36700
C100        C  0.22211688  0.44710608  0.25130236    -0.05500
C101        C  0.27557475  0.47397270  0.25214976    -0.32400
C102        C  0.30303769  0.02701051  0.25393902     0.36600
H103        H  0.20332717  0.04820623  0.24902884     0.17000
O104        O  0.14444043  0.45072570  0.25505793    -0.59900
H105        H  0.29661042  0.45400536  0.25175098     0.17000
O106        O  0.35469942  0.05096964  0.25864738    -0.60000
H107        H  0.35999885  0.05773124  0.28461417     0.44000
H108        H  0.13198343  0.45795838  0.23267185     0.43900
C109        C  0.27806278  0.22527620  0.08015784    -0.05100
C110        C  0.22456496  0.19755999  0.07957759    -0.32500
C111        C  0.19661231  0.22234522  0.07793196     0.36700
C112        C  0.22188132  0.27609386  0.07954049    -0.05500
C113        C  0.27532530  0.30379875  0.08065596    -0.32400
C114        C  0.30330587  0.27909492  0.07942196     0.36600
H115        H  0.20379888  0.15624488  0.08012714     0.17000
O116        O  0.14500325  0.19376101  0.07267535    -0.59900
H117        H  0.29596553  0.34507881  0.08210700     0.17000
O118        O  0.35523478  0.30824504  0.07663959    -0.60000
H119        H  0.36267539  0.30917393  0.05078078     0.44000
H120        H  0.13083857  0.17275578  0.09451155     0.43900
C121        C  0.05393923  0.27633444  0.41625107    -0.05100
C122        C  0.02826533  0.30383477  0.41492271    -0.32500
C123        C  0.47532436  0.27885213  0.41543450     0.36700
C124        C  0.44672018  0.22500050  0.41473912    -0.05500
C125        C  0.47251408  0.19753701  0.41507765    -0.32400
C126        C  0.02523796  0.22253233  0.41747460     0.36600
H127        H  0.04908411  0.34513559  0.41383079     0.17000
O128        O  0.45221474  0.30748050  0.41884932    -0.59900
H129        H  0.45187290  0.15622907  0.41412037     0.17000
O130        O  0.04790552  0.19372637  0.42190541    -0.60000
H131        H  0.05316779  0.19349232  0.44798552     0.44000
H132        H  0.45981894  0.32733731  0.39640849     0.43900
O133        O  0.25929717  0.44903705  0.53365984    -0.71400
O134        O  0.31132821  0.05355172  0.96328068    -0.71700
O135        O  0.31304794  0.05344354  0.53394026    -0.71500
O136        O  0.26096067  0.44926530  0.96307407    -0.72700
O137        O  0.18950528  0.44877317  0.96350142    -0.71500
O138        O  0.24162692  0.05302203  0.53400681    -0.71500
O139        O  0.23987608  0.05305617  0.96336650    -0.71400
O140        O  0.18792334  0.44870489  0.53409680    -0.71600
V141        V  0.28477763  0.00133777  0.99849627     1.35200
V142        V  0.21614187  0.50090988  0.49874408     1.35200
C143        C  0.21338341  0.42869437  0.54407712     0.77800
C144        C  0.28543796  0.07334045  0.95299159     0.77900
C145        C  0.28750782  0.07331237  0.54425580     0.77700
C146        C  0.21531714  0.42887607  0.95307875     0.77700
C147        C  0.11027591  0.30435367  0.91658848     0.03500
C148        C  0.13721956  0.35148196  0.93380439    -0.12700
C149        C  0.19040655  0.38002407  0.93292656     0.01000
C150        C  0.21733405  0.35883156  0.91614286    -0.11200
C151        C  0.19033301  0.31037048  0.89938636     0.03500
C152        C  0.13715621  0.28493077  0.89881240    -0.10600
H153        H  0.11647489  0.36565238  0.94879489     0.09100
H154        H  0.25852259  0.37975227  0.91599172     0.06600
H155        H  0.11646521  0.25041163  0.88319772     0.06400
C156        C  0.39031745  0.19676952  0.91474804     0.03500
C157        C  0.36333363  0.15030950  0.93279903    -0.12700
C158        C  0.31016308  0.12180298  0.93232194     0.01000
C159        C  0.28321516  0.14266703  0.91531750    -0.11200
C160        C  0.31022205  0.19058172  0.89778624     0.03500
C161        C  0.36338273  0.21555670  0.89647356    -0.10600
H162        H  0.38402448  0.13665564  0.94821555     0.09100
H163        H  0.24203150  0.12198709  0.91567025     0.06600
H164        H  0.38391923  0.24933818  0.88015389     0.06400
O165        O  0.44862297  0.26042781  0.63061260    -0.71400
O166        O  0.05298162  0.31160142  0.70065476    -0.71700
O167        O  0.05267275  0.31311065  0.62993833    -0.71500
O168        O  0.44897584  0.26204907  0.70128392    -0.71500
O169        O  0.44766846  0.18993999  0.70093213    -0.71500
O170        O  0.05139601  0.24100702  0.62998711    -0.71500
O171        O  0.05170700  0.23950748  0.70071945    -0.71400
O172        O  0.44737664  0.18833672  0.63023444    -0.71600
V173        V  0.00082549  0.28540095  0.66562826     1.35200
V174        V  0.49954248  0.21609777  0.66547572     1.35200
C175        C  0.42802372  0.21441003  0.62011105     0.77800
C176        C  0.07236278  0.28531668  0.71098298     0.77900
C177        C  0.07191816  0.28700361  0.61947384     0.77700
C178        C  0.42830687  0.21623091  0.71148324     0.77700
C179        C  0.30649139  0.19742026  0.58075457     0.03500
C180        C  0.35227556  0.21663036  0.59936806    -0.12700
C181        C  0.37995502  0.19119932  0.59923719     0.01000
C182        C  0.35878969  0.14297527  0.58215881    -0.11200
C183        C  0.31123625  0.12201943  0.56461217     0.03500
C184        C  0.28691960  0.15060909  0.56319314    -0.10600
H185        H  0.36586395  0.25101483  0.61507466     0.09100
H186        H  0.37890694  0.12207005  0.58258659     0.06600
H187        H  0.25276217  0.13670031  0.54739679     0.06400
C188        C  0.19352373  0.30396365  0.57982696     0.03500
C189        C  0.14736954  0.28453419  0.59813070    -0.12700
C190        C  0.11994425  0.31018379  0.59833115     0.01000
C191        C  0.14152676  0.35865308  0.58158509    -0.11200
C192        C  0.18940777  0.37977075  0.56420245     0.03500
C193        C  0.21373958  0.35115477  0.56273565    -0.10600
H194        H  0.13346397  0.24991458  0.61355290     0.09100
H195        H  0.12152432  0.37967173  0.58220367     0.06600
H196        H  0.24846435  0.36534362  0.54738116     0.06400
O197        O  0.31114143  0.26022058  0.86726753    -0.71400
O198        O  0.25839247  0.31186669  0.79755532    -0.71700
O199        O  0.26059264  0.31320055  0.86821360    -0.71500
O200        O  0.31241382  0.26230963  0.79663361    -0.71500
O201        O  0.24095394  0.19028131  0.79681944    -0.71500
O202        O  0.18925537  0.24103125  0.86825696    -0.71500
O203        O  0.18697479  0.23979771  0.79757834    -0.71400
O204        O  0.23975745  0.18809948  0.86746318    -0.71600
V205        V  0.28423092  0.28550569  0.83241612     1.35200
V206        V  0.21563886  0.21621909  0.83252325     1.35200
C207        C  0.28537813  0.21406924  0.87752180     0.77800
C208        C  0.21244752  0.28558610  0.78735283     0.77900
C209        C  0.21510170  0.28707445  0.87867916     0.77700
C210        C  0.28684982  0.21655098  0.78636951     0.77700
C211        C  0.30575517  0.11135770  0.75074028     0.03500
C212        C  0.35192185  0.13817028  0.73248557    -0.12700
C213        C  0.37993670  0.19162271  0.73228887     0.01000
C214        C  0.35872570  0.21880366  0.74885706    -0.11200
C215        C  0.31060937  0.19178712  0.76607008     0.03500
C216        C  0.28578055  0.13846287  0.76752428    -0.10600
H217        H  0.36556411  0.11707380  0.71735655     0.09100
H218        H  0.37920191  0.26013474  0.74831900     0.06600
H219        H  0.25099272  0.11770715  0.78284099     0.06400
C220        C  0.19410474  0.39047846  0.75051927     0.03500
C221        C  0.14891721  0.36338450  0.73138339    -0.12700
C222        C  0.12058307  0.30996700  0.73178278     0.01000
C223        C  0.14114948  0.28293884  0.74921493    -0.11200
C224        C  0.18871641  0.31016425  0.76695868     0.03500
C225        C  0.21327420  0.36349699  0.76836451    -0.10600
H226        H  0.13617342  0.38413140  0.71515849     0.09100
H227        H  0.12064811  0.24160420  0.74889809     0.06600
H228        H  0.24729966  0.38428554  0.78430364     0.06400
C229        C  0.27753171  0.05481443  0.75165902    -0.05100
C230        C  0.22413321  0.02806043  0.75056515    -0.32500
C231        C  0.19641249  0.47488529  0.75164853     0.36700
C232        C  0.22211685  0.44710605  0.75130244    -0.05500
C233        C  0.27557473  0.47397262  0.75214974    -0.32400
C234        C  0.30303757  0.02701047  0.75393891     0.36600
H235        H  0.20332718  0.04820625  0.74902870     0.17000
O236        O  0.14444039  0.45072566  0.75505811    -0.59900
H237        H  0.29661036  0.45400520  0.75175093     0.17000
O238        O  0.35469931  0.05096964  0.75864736    -0.60000
H239        H  0.35999861  0.05773106  0.78461372     0.44000
H240        H  0.13198333  0.45795822  0.73267204     0.43900
C241        C  0.27806269  0.22527616  0.58015781    -0.05100
C242        C  0.22456489  0.19755992  0.57957770    -0.32500
C243        C  0.19661224  0.22234513  0.57793204     0.36700
C244        C  0.22188127  0.27609381  0.57954044    -0.05500
C245        C  0.27532522  0.30379874  0.58065589    -0.32400
C246        C  0.30330576  0.27909489  0.57942187     0.36600
H247        H  0.20379883  0.15624482  0.58012728     0.17000
O248        O  0.14500321  0.19376091  0.57267528    -0.59900
H249        H  0.29596544  0.34507882  0.58210694     0.17000
O250        O  0.35523464  0.30824498  0.57663948    -0.60000
H251        H  0.36267519  0.30917371  0.55078077     0.44000
H252        H  0.13083836  0.17275558  0.59451140     0.43900
C253        C  0.05393916  0.27633440  0.91625108    -0.05100
C254        C  0.02826524  0.30383473  0.91492279    -0.32500
C255        C  0.47532436  0.27885209  0.91543445     0.36700
C256        C  0.44672017  0.22500049  0.91473906    -0.05500
C257        C  0.47251406  0.19753699  0.91507770    -0.32400
C258        C  0.02523791  0.22253231  0.91747453     0.36600
H259        H  0.04908399  0.34513556  0.91383098     0.17000
O260        O  0.45221477  0.30748048  0.91884922    -0.59900
H261        H  0.45187289  0.15622908  0.91412048     0.17000
O262        O  0.04790546  0.19372628  0.92190539    -0.60000
H263        H  0.05316771  0.19349231  0.94798496     0.44000
H264        H  0.45981900  0.32733729  0.89640840     0.43900
O265        O  0.25929721  0.94903714  0.03365992    -0.71400
O266        O  0.31132815  0.55355173  0.46328070    -0.71700
O267        O  0.31304808  0.55344366  0.03394028    -0.71500
O268        O  0.26096072  0.94926523  0.46307400    -0.72700
O269        O  0.18950529  0.94877303  0.46350138    -0.71500
O270        O  0.24162706  0.55302214  0.03400683    -0.71500
O271        O  0.23987603  0.55305621  0.46336651    -0.71400
O272        O  0.18792337  0.94870496  0.03409685    -0.71600
V273        V  0.28477761  0.50133773  0.49849624     1.35200
V274        V  0.21614189  0.00090991  0.99874411     1.35200
C275        C  0.21338343  0.92869440  0.04407717     0.77800
C276        C  0.28543791  0.57334050  0.45299163     0.77900
C277        C  0.28750795  0.57331248  0.04425580     0.77700
C278        C  0.21531718  0.92887597  0.45307870     0.77700
C279        C  0.11027595  0.80435373  0.41658839     0.03500
C280        C  0.13721962  0.85148187  0.43380440    -0.12700
C281        C  0.19040660  0.88002399  0.43292650     0.01000
C282        C  0.21733408  0.85883155  0.41614272    -0.11200
C283        C  0.19033301  0.81037049  0.39938627     0.03500
C284        C  0.13715624  0.78493084  0.39881232    -0.10600
H285        H  0.11647496  0.86565216  0.44879499     0.09100
H286        H  0.25852259  0.87975220  0.41599154     0.06600
H287        H  0.11646524  0.75041170  0.38319768     0.06400
C288        C  0.39031753  0.69676954  0.41474814     0.03500
C289        C  0.36333370  0.65030955  0.43279917    -0.12700
C290        C  0.31016312  0.62180304  0.43232203     0.01000
C291        C  0.28321522  0.64266710  0.41531754    -0.11200
C292        C  0.31022212  0.69058172  0.39778624     0.03500
C293        C  0.36338281  0.71555672  0.39647363    -0.10600
H294        H  0.38402454  0.63665567  0.44821575     0.09100
H295        H  0.24203156  0.62198724  0.41567029     0.06600
H296        H  0.38391934  0.74933822  0.38015400     0.06400
O297        O  0.44862309  0.76042783  0.13061254    -0.71400
O298        O  0.05298157  0.81160134  0.20065479    -0.71700
O299        O  0.05267287  0.81311070  0.12993839    -0.71500
O300        O  0.44897583  0.76204899  0.20128380    -0.71500
O301        O  0.44766854  0.68993994  0.20093216    -0.71500
O302        O  0.05139594  0.74100697  0.12998704    -0.71500
O303        O  0.05170709  0.73950746  0.20071942    -0.71400
O304        O  0.44737673  0.68833672  0.13023446    -0.71600
V305        V  0.00082552  0.78540093  0.16562822     1.35200
V306        V  0.49954256  0.71609777  0.16547575     1.35200
C307        C  0.42802381  0.71441002  0.12011103     0.77800
C308        C  0.07236283  0.78531664  0.21098295     0.77900
C309        C  0.07191813  0.78700358  0.11947379     0.77700
C310        C  0.42830691  0.71623085  0.21148317     0.77700
C311        C  0.30649144  0.69742025  0.08075464     0.03500
C312        C  0.35227567  0.71663040  0.09936806    -0.12700
C313        C  0.37995513  0.69119932  0.09923721     0.01000
C314        C  0.35878972  0.64297520  0.08215892    -0.11200
C315        C  0.31123634  0.62201946  0.06461222     0.03500
C316        C  0.28691962  0.65060907  0.06319320    -0.10600
H317        H  0.36586415  0.75101495  0.11507465     0.09100
H318        H  0.37890695  0.62206993  0.08258678     0.06600
H319        H  0.25276219  0.63670032  0.04739682     0.06400
C320        C  0.19352363  0.80396353  0.07982700     0.03500
C321        C  0.14736942  0.78453409  0.09813072    -0.12700
C322        C  0.11994410  0.81018366  0.09833105     0.01000
C323        C  0.14152663  0.85865295  0.08158498    -0.11200
C324        C  0.18940773  0.87977070  0.06420246     0.03500
C325        C  0.21373951  0.85115469  0.06273570    -0.10600
H326        H  0.13346386  0.74991453  0.11355299     0.09100
H327        H  0.12152416  0.87967157  0.08220353     0.06600
H328        H  0.24846427  0.86534352  0.04738122     0.06400
O329        O  0.31114148  0.76022056  0.36726756    -0.71400
O330        O  0.25839243  0.81186660  0.29755537    -0.71700
O331        O  0.26059262  0.81320039  0.36821368    -0.71500
O332        O  0.31241387  0.76230969  0.29663366    -0.71500
O333        O  0.24095398  0.69028137  0.29681943    -0.71500
O334        O  0.18925527  0.74103115  0.36825699    -0.71500
O335        O  0.18697470  0.73979767  0.29757840    -0.71400
O336        O  0.23975750  0.68809943  0.36746318    -0.71600
V337        V  0.28423090  0.78550562  0.33241618     1.35200
V338        V  0.21563882  0.71621904  0.33252328     1.35200
C339        C  0.28537819  0.71406919  0.37752179     0.77800
C340        C  0.21244748  0.78558603  0.28735286     0.77900
C341        C  0.21510165  0.78707436  0.37867918     0.77700
C342        C  0.28684985  0.71655106  0.28636949     0.77700
C343        C  0.30575532  0.61135782  0.25074039     0.03500
C344        C  0.35192193  0.63817033  0.23248560    -0.12700
C345        C  0.37993677  0.69162275  0.23228882     0.01000
C346        C  0.35872586  0.71880378  0.24885705    -0.11200
C347        C  0.31060947  0.69178728  0.26607003     0.03500
C348        C  0.28578071  0.63846303  0.26752433    -0.10600
H349        H  0.36556414  0.61707378  0.21735660     0.09100
H350        H  0.37920220  0.76013487  0.24831902     0.06600
H351        H  0.25099291  0.61770737  0.28284108     0.06400
C352        C  0.19410482  0.89047843  0.25051926     0.03500
C353        C  0.14891731  0.86338450  0.23138338    -0.12700
C354        C  0.12058317  0.80996699  0.23178271     0.01000
C355        C  0.14114954  0.78293883  0.24921481    -0.11200
C356        C  0.18871638  0.81016419  0.26695868     0.03500
C357        C  0.21327417  0.86349696  0.26836453    -0.10600
H358        H  0.13617358  0.88413142  0.21515848     0.09100
H359        H  0.12064818  0.74160420  0.24889786     0.06600
H360        H  0.24729966  0.88428549  0.28430362     0.06400
C361        C  0.27753181  0.55481453  0.25165914    -0.05100
C362        C  0.22413329  0.52806054  0.25056521    -0.32500
C363        C  0.19641252  0.97488520  0.25164841     0.36700
C364        C  0.22211690  0.94710602  0.25130237    -0.05500
C365        C  0.27557478  0.97397264  0.25214978    -0.32400
C366        C  0.30303766  0.52701055  0.25393901     0.36600
H367        H  0.20332726  0.54820634  0.24902883     0.17000
O368        O  0.14444041  0.95072551  0.25505794    -0.59900
H369        H  0.29661040  0.95400525  0.25175101     0.17000
O370        O  0.35469936  0.55096959  0.25864740    -0.60000
H371        H  0.35999875  0.55773107  0.28461419     0.44000
H372        H  0.13198336  0.95795810  0.23267188     0.43900
C373        C  0.27806276  0.72527616  0.08015785    -0.05100
C374        C  0.22456498  0.69755992  0.07957759    -0.32500
C375        C  0.19661225  0.72234506  0.07793196     0.36700
C376        C  0.22188121  0.77609370  0.07954049    -0.05500
C377        C  0.27532517  0.80379867  0.08065599    -0.32400
C378        C  0.30330578  0.77909486  0.07942197     0.36600
H379        H  0.20379898  0.65624484  0.08012715     0.17000
O380        O  0.14500320  0.69376071  0.07267535    -0.59900
H381        H  0.29596537  0.84507876  0.08210708     0.17000
O382        O  0.35523465  0.80824495  0.07663959    -0.60000
H383        H  0.36267526  0.80917376  0.05078079     0.44000
H384        H  0.13083855  0.67275549  0.09451155     0.43900
C385        C  0.05393917  0.77633445  0.41625105    -0.05100
C386        C  0.02826527  0.80383476  0.41492271    -0.32500
C387        C  0.47532442  0.77885213  0.41543451     0.36700
C388        C  0.44672022  0.72500052  0.41473912    -0.05500
C389        C  0.47251410  0.69753702  0.41507766    -0.32400
C390        C  0.02523793  0.72253238  0.41747460     0.36600
H391        H  0.04908404  0.84513555  0.41383079     0.17000
O392        O  0.45221491  0.80748058  0.41884931    -0.59900
H393        H  0.45187292  0.65622908  0.41412037     0.17000
O394        O  0.04790554  0.69372648  0.42190541    -0.60000
H395        H  0.05316750  0.69349221  0.44798554     0.44000
H396        H  0.45981919  0.82733744  0.39640848     0.43900
O397        O  0.25929720  0.94903715  0.53365985    -0.71400
O398        O  0.31132815  0.55355176  0.96328068    -0.71700
O399        O  0.31304801  0.55344354  0.53394023    -0.71500
O400        O  0.26096061  0.94926519  0.96307409    -0.72700
O401        O  0.18950521  0.94877304  0.96350145    -0.71500
O402        O  0.24162697  0.55302200  0.53400681    -0.71500
O403        O  0.23987606  0.55305629  0.96336654    -0.71400
O404        O  0.18792338  0.94870501  0.53409682    -0.71600
V405        V  0.28477764  0.50133784  0.99849628     1.35200
V406        V  0.21614188  0.00090990  0.49874407     1.35200
C407        C  0.21338345  0.92869448  0.54407714     0.77800
C408        C  0.28543792  0.57334050  0.95299158     0.77900
C409        C  0.28750789  0.57331236  0.54425577     0.77700
C410        C  0.21531709  0.92887598  0.95307875     0.77700
C411        C  0.11027597  0.80435372  0.91658849     0.03500
C412        C  0.13721961  0.85148198  0.93380438    -0.12700
C413        C  0.19040654  0.88002405  0.93292652     0.01000
C414        C  0.21733405  0.85883151  0.91614285    -0.11200
C415        C  0.19033302  0.81037044  0.89938640     0.03500
C416        C  0.13715628  0.78493079  0.89881245    -0.10600
H417        H  0.11647499  0.86565240  0.94879489     0.09100
H418        H  0.25852254  0.87975220  0.91599171     0.06600
H419        H  0.11646530  0.75041171  0.88319774     0.06400
C420        C  0.39031746  0.69676956  0.91474808     0.03500
C421        C  0.36333364  0.65030954  0.93279905    -0.12700
C422        C  0.31016306  0.62180300  0.93232194     0.01000
C423        C  0.28321512  0.64266706  0.91531751    -0.11200
C424        C  0.31022202  0.69058171  0.89778625     0.03500
C425        C  0.36338272  0.71555672  0.89647360    -0.10600
H426        H  0.38402448  0.63665565  0.94821560     0.09100
H427        H  0.24203145  0.62198714  0.91567024     0.06600
H428        H  0.38391924  0.74933818  0.88015394     0.06400
O429        O  0.44862297  0.76042778  0.63061261    -0.71400
O430        O  0.05298162  0.81160130  0.70065478    -0.71700
O431        O  0.05267284  0.81311071  0.62993841    -0.71500
O432        O  0.44897596  0.76204903  0.70128395    -0.71500
O433        O  0.44766845  0.68993989  0.70093207    -0.71500
O434        O  0.05139602  0.74100704  0.62998709    -0.71500
O435        O  0.05170711  0.73950741  0.70071942    -0.71400
O436        O  0.44737666  0.68833669  0.63023443    -0.71600
V437        V  0.00082551  0.78540090  0.66562827     1.35200
V438        V  0.49954250  0.71609772  0.66547570     1.35200
C439        C  0.42802372  0.71440998  0.62011105     0.77800
C440        C  0.07236286  0.78531660  0.71098294     0.77900
C441        C  0.07191822  0.78700366  0.61947387     0.77700
C442        C  0.42830695  0.71623087  0.71148323     0.77700
C443        C  0.30649144  0.69742023  0.58075459     0.03500
C444        C  0.35227559  0.71663030  0.59936804    -0.12700
C445        C  0.37995505  0.69119927  0.59923717     0.01000
C446        C  0.35878968  0.64297518  0.58215883    -0.11200
C447        C  0.31123628  0.62201939  0.56461217     0.03500
C448        C  0.28691961  0.65060903  0.56319318    -0.10600
H449        H  0.36586403  0.75101478  0.61507465     0.09100
H450        H  0.37890688  0.62206993  0.58258668     0.06600
H451        H  0.25276217  0.63670028  0.54739687     0.06400
C452        C  0.19352372  0.80396367  0.57982694     0.03500
C453        C  0.14736950  0.78453419  0.59813063    -0.12700
C454        C  0.11994427  0.81018385  0.59833115     0.01000
C455        C  0.14152679  0.85865314  0.58158511    -0.11200
C456        C  0.18940780  0.87977083  0.56420246     0.03500
C457        C  0.21373959  0.85115484  0.56273566    -0.10600
H458        H  0.13346386  0.74991455  0.61355277     0.09100
H459        H  0.12152437  0.87967179  0.58220373     0.06600
H460        H  0.24846436  0.86534370  0.54738120     0.06400
O461        O  0.31114147  0.76022051  0.86726745    -0.71400
O462        O  0.25839240  0.81186661  0.79755534    -0.71700
O463        O  0.26059262  0.81320047  0.86821361    -0.71500
O464        O  0.31241390  0.76230969  0.79663361    -0.71500
O465        O  0.24095406  0.69028134  0.79681945    -0.71500
O466        O  0.18925528  0.74103123  0.86825691    -0.71500
O467        O  0.18697474  0.73979761  0.79757831    -0.71400
O468        O  0.23975741  0.68809949  0.86746323    -0.71600
V469        V  0.28423090  0.78550564  0.83241611     1.35200
V470        V  0.21563884  0.71621907  0.83252324     1.35200
C471        C  0.28537813  0.71406921  0.87752177     0.77800
C472        C  0.21244747  0.78558600  0.78735282     0.77900
C473        C  0.21510167  0.78707441  0.87867916     0.77700
C474        C  0.28684992  0.71655102  0.78636952     0.77700
C475        C  0.30575533  0.61135779  0.75074030     0.03500
C476        C  0.35192200  0.63817033  0.73248562    -0.12700
C477        C  0.37993684  0.69162274  0.73228889     0.01000
C478        C  0.35872590  0.71880373  0.74885709    -0.11200
C479        C  0.31060955  0.69178722  0.76607008     0.03500
C480        C  0.28578071  0.63846298  0.76752424    -0.10600
H481        H  0.36556422  0.61707381  0.71735661     0.09100
H482        H  0.37920215  0.76013479  0.74831902     0.06600
H483        H  0.25099287  0.61770730  0.78284090     0.06400
C484        C  0.19410477  0.89047842  0.75051929     0.03500
C485        C  0.14891724  0.86338450  0.73138343    -0.12700
C486        C  0.12058313  0.80996699  0.73178275     0.01000
C487        C  0.14114945  0.78293881  0.74921494    -0.11200
C488        C  0.18871638  0.81016417  0.76695866     0.03500
C489        C  0.21327423  0.86349693  0.76836447    -0.10600
H490        H  0.13617347  0.88413146  0.71515858     0.09100
H491        H  0.12064802  0.74160417  0.74889811     0.06600
H492        H  0.24729975  0.88428547  0.78430352     0.06400
C493        C  0.27753181  0.55481451  0.75165904    -0.05100
C494        C  0.22413327  0.52806054  0.75056516    -0.32500
C495        C  0.19641245  0.97488522  0.75164853     0.36700
C496        C  0.22211680  0.94710599  0.75130246    -0.05500
C497        C  0.27557468  0.97397261  0.75214974    -0.32400
C498        C  0.30303765  0.52701046  0.75393891     0.36600
H499        H  0.20332725  0.54820638  0.74902870     0.17000
O500        O  0.14444037  0.95072569  0.75505812    -0.59900
H501        H  0.29661031  0.95400521  0.75175095     0.17000
O502        O  0.35469941  0.55096953  0.75864736    -0.60000
H503        H  0.35999876  0.55773113  0.78461360     0.44000
H504        H  0.13198331  0.95795817  0.73267190     0.43900
C505        C  0.27806278  0.72527619  0.58015781    -0.05100
C506        C  0.22456498  0.69755997  0.57957770    -0.32500
C507        C  0.19661225  0.72234511  0.57793203     0.36700
C508        C  0.22188124  0.77609376  0.57954043    -0.05500
C509        C  0.27532521  0.80379867  0.58065589    -0.32400
C510        C  0.30330581  0.77909489  0.57942188     0.36600
H511        H  0.20379898  0.65624490  0.58012730     0.17000
O512        O  0.14500325  0.69376085  0.57267527    -0.59900
H513        H  0.29596541  0.84507871  0.58210694     0.17000
O514        O  0.35523470  0.80824509  0.57663949    -0.60000
H515        H  0.36267531  0.80917366  0.55078079     0.44000
H516        H  0.13083827  0.67275545  0.59451170     0.43900
C517        C  0.05393921  0.77633446  0.91625107    -0.05100
C518        C  0.02826533  0.80383481  0.91492279    -0.32500
C519        C  0.47532439  0.77885222  0.91543445     0.36700
C520        C  0.44672017  0.72500059  0.91473907    -0.05500
C521        C  0.47251405  0.69753708  0.91507770    -0.32400
C522        C  0.02523791  0.72253239  0.91747453     0.36600
H523        H  0.04908410  0.84513561  0.91383099     0.17000
O524        O  0.45221479  0.80748060  0.91884922    -0.59900
H525        H  0.45187282  0.65622914  0.91412047     0.17000
O526        O  0.04790544  0.69372638  0.92190540    -0.60000
H527        H  0.05316742  0.69349219  0.94798499     0.44000
H528        H  0.45981902  0.82733739  0.89640838     0.43900
O529        O  0.75929718  0.44903718  0.03365991    -0.71400
O530        O  0.81132816  0.05355172  0.46328069    -0.71700
O531        O  0.81304805  0.05344366  0.03394020    -0.71500
O532        O  0.76096069  0.44926518  0.46307401    -0.72700
O533        O  0.68950533  0.44877312  0.46350134    -0.71500
O534        O  0.74162696  0.05302203  0.03400682    -0.71500
O535        O  0.73987602  0.05305617  0.46336647    -0.71400
O536        O  0.68792335  0.44870501  0.03409682    -0.71600
V537        V  0.78477763  0.00133777  0.49849624     1.35200
V538        V  0.71614189  0.50090999  0.99874410     1.35200
C539        C  0.71338341  0.42869447  0.04407714     0.77800
C540        C  0.78543791  0.07334046  0.45299160     0.77900
C541        C  0.78750788  0.07331241  0.04425577     0.77700
C542        C  0.71531718  0.42887602  0.45307865     0.77700
C543        C  0.61027593  0.30435373  0.41658840     0.03500
C544        C  0.63721961  0.35148195  0.43380436    -0.12700
C545        C  0.69040658  0.38002406  0.43292644     0.01000
C546        C  0.71733404  0.35883154  0.41614274    -0.11200
C547        C  0.69033296  0.31037046  0.39938628     0.03500
C548        C  0.63715619  0.28493083  0.39881230    -0.10600
H549        H  0.61647495  0.36565228  0.44879493     0.09100
H550        H  0.75852256  0.37975215  0.41599160     0.06600
H551        H  0.61646516  0.25041168  0.38319763     0.06400
C552        C  0.89031749  0.19676951  0.41474805     0.03500
C553        C  0.86333367  0.15030951  0.43279907    -0.12700
C554        C  0.81016311  0.12180300  0.43232198     0.01000
C555        C  0.78321520  0.14266704  0.41531753    -0.11200
C556        C  0.81022209  0.19058167  0.39778622     0.03500
C557        C  0.86338276  0.21555667  0.39647358    -0.10600
H558        H  0.88402452  0.13665568  0.44821564     0.09100
H559        H  0.74203156  0.12198716  0.41567035     0.06600
H560        H  0.88391925  0.24933821  0.38015397     0.06400
O561        O  0.94862303  0.26042777  0.13061256    -0.71400
O562        O  0.55298160  0.31160141  0.20065476    -0.71700
O563        O  0.55267277  0.31311070  0.12993835    -0.71500
O564        O  0.94897582  0.26204898  0.20128380    -0.71500
O565        O  0.94766852  0.18993994  0.20093215    -0.71500
O566        O  0.55139600  0.24100706  0.12998707    -0.71500
O567        O  0.55170703  0.23950749  0.20071946    -0.71400
O568        O  0.94737669  0.18833667  0.13023446    -0.71600
V569        V  0.50082550  0.28540092  0.16562823     1.35200
V570        V  0.99954255  0.21609776  0.16547576     1.35200
C571        C  0.92802375  0.21440996  0.12011106     0.77800
C572        C  0.57236281  0.28531669  0.21098296     0.77900
C573        C  0.57191812  0.28700363  0.11947378     0.77700
C574        C  0.92830687  0.21623085  0.21148317     0.77700
C575        C  0.80649143  0.19742029  0.08075461     0.03500
C576        C  0.85227568  0.21663044  0.09936801    -0.12700
C577        C  0.87995508  0.19119929  0.09923721     0.01000
C578        C  0.85878970  0.14297518  0.08215889    -0.11200
C579        C  0.81123628  0.12201941  0.06461221     0.03500
C580        C  0.78691956  0.15060904  0.06319324    -0.10600
H581        H  0.86586419  0.25101503  0.11507456     0.09100
H582        H  0.87890697  0.12206995  0.08258674     0.06600
H583        H  0.75276208  0.13670025  0.04739691     0.06400
C584        C  0.69352369  0.30396371  0.07982702     0.03500
C585        C  0.64736949  0.28453427  0.09813075    -0.12700
C586        C  0.61994413  0.31018379  0.09833106     0.01000
C587        C  0.64152665  0.35865307  0.08158499    -0.11200
C588        C  0.68940773  0.37977080  0.06420245     0.03500
C589        C  0.71373954  0.35115484  0.06273570    -0.10600
H590        H  0.63346394  0.24991474  0.11355303     0.09100
H591        H  0.62152419  0.37967169  0.08220353     0.06600
H592        H  0.74846428  0.36534365  0.04738121     0.06400
O593        O  0.81114147  0.26022057  0.36726760    -0.71400
O594        O  0.75839256  0.31186675  0.29755538    -0.71700
O595        O  0.76059263  0.31320044  0.36821370    -0.71500
O596        O  0.81241386  0.26230965  0.29663365    -0.71500
O597        O  0.74095398  0.19028133  0.29681946    -0.71500
O598        O  0.68925530  0.24103119  0.36825696    -0.71500
O599        O  0.68697487  0.23979777  0.29757837    -0.71400
O600        O  0.73975750  0.18809945  0.36746317    -0.71600
V601        V  0.78423095  0.28550568  0.33241619     1.35200
V602        V  0.71563888  0.21621909  0.33252327     1.35200
C603        C  0.78537817  0.21406919  0.37752180     0.77800
C604        C  0.71244762  0.28558616  0.28735285     0.77900
C605        C  0.71510164  0.28707438  0.37867919     0.77700
C606        C  0.78684982  0.21655100  0.28636948     0.77700
C607        C  0.80575528  0.11135774  0.25074036     0.03500
C608        C  0.85192192  0.13817027  0.23248559    -0.12700
C609        C  0.87993671  0.19162271  0.23228878     0.01000
C610        C  0.85872571  0.21880371  0.24885694    -0.11200
C611        C  0.81060939  0.19178720  0.26606999     0.03500
C612        C  0.78578067  0.13846295  0.26752431    -0.10600
H613        H  0.86556417  0.11707375  0.21735660     0.09100
H614        H  0.87920198  0.26013480  0.24831885     0.06600
H615        H  0.75099289  0.11770725  0.28284108     0.06400
C616        C  0.69410478  0.39047847  0.25051927     0.03500
C617        C  0.64891727  0.36338450  0.23138340    -0.12700
C618        C  0.62058317  0.30996702  0.23178273     0.01000
C619        C  0.64114963  0.28293891  0.24921483    -0.11200
C620        C  0.68871649  0.31016430  0.26695866     0.03500
C621        C  0.71327420  0.36349703  0.26836453    -0.10600
H622        H  0.63617350  0.38413138  0.21515853     0.09100
H623        H  0.62064832  0.24160429  0.24889793     0.06600
H624        H  0.74729965  0.38428556  0.28430364     0.06400
C625        C  0.77753174  0.05481445  0.25165913    -0.05100
C626        C  0.72413320  0.02806044  0.25056521    -0.32500
C627        C  0.69641252  0.47488532  0.25164841     0.36700
C628        C  0.72211684  0.44710608  0.25130236    -0.05500
C629        C  0.77557469  0.47397268  0.25214976    -0.32400
C630        C  0.80303761  0.02701049  0.25393902     0.36600
H631        H  0.70332717  0.04820623  0.24902883     0.17000
O632        O  0.64444044  0.45072570  0.25505794    -0.59900
H633        H  0.79661033  0.45400531  0.25175098     0.17000
O634        O  0.85469932  0.05096963  0.25864739    -0.60000
H635        H  0.85999874  0.05773124  0.28461418     0.44000
H636        H  0.63198345  0.45795832  0.23267186     0.43900
C637        C  0.77806275  0.22527622  0.08015783    -0.05100
C638        C  0.72456497  0.19756000  0.07957759    -0.32500
C639        C  0.69661229  0.22234520  0.07793196     0.36700
C640        C  0.72188126  0.27609384  0.07954049    -0.05500
C641        C  0.77532521  0.30379876  0.08065596    -0.32400
C642        C  0.80330579  0.27909493  0.07942196     0.36600
H643        H  0.70379890  0.15624489  0.08012714     0.17000
O644        O  0.64500326  0.19376094  0.07267535    -0.59900
H645        H  0.79596543  0.34507881  0.08210701     0.17000
O646        O  0.85523468  0.30824508  0.07663959    -0.60000
H647        H  0.86267526  0.30917376  0.05078088     0.44000
H648        H  0.63083860  0.17275572  0.09451154     0.43900
C649        C  0.55393919  0.27633446  0.41625107    -0.05100
C650        C  0.52826527  0.30383479  0.41492271    -0.32500
C651        C  0.97532441  0.27885214  0.41543450     0.36700
C652        C  0.94672020  0.22500051  0.41473909    -0.05500
C653        C  0.97251409  0.19753701  0.41507765    -0.32400
C654        C  0.52523795  0.22253235  0.41747459     0.36600
H655        H  0.54908406  0.34513561  0.41383080     0.17000
O656        O  0.95221484  0.30748055  0.41884931    -0.59900
H657        H  0.95187286  0.15622907  0.41412033     0.17000
O658        O  0.54790552  0.19372638  0.42190542    -0.60000
H659        H  0.55316771  0.19349228  0.44798553     0.44000
H660        H  0.95981905  0.32733736  0.39640849     0.43900
O661        O  0.75929714  0.44903703  0.53365985    -0.71400
O662        O  0.81132818  0.05355173  0.96328068    -0.71700
O663        O  0.81304801  0.05344357  0.53394027    -0.71500
O664        O  0.76096072  0.44926533  0.96307408    -0.72700
O665        O  0.68950530  0.44877315  0.96350141    -0.71500
O666        O  0.74162702  0.05302212  0.53400676    -0.71500
O667        O  0.73987604  0.05305616  0.96336650    -0.71400
O668        O  0.68792333  0.44870491  0.53409679    -0.71600
V669        V  0.78477765  0.00133779  0.99849627     1.35200
V670        V  0.71614191  0.50090989  0.49874407     1.35200
C671        C  0.71338337  0.42869437  0.54407713     0.77800
C672        C  0.78543792  0.07334045  0.95299160     0.77900
C673        C  0.78750791  0.07331242  0.54425579     0.77700
C674        C  0.71531718  0.42887608  0.95307874     0.77700
C675        C  0.61027597  0.30435367  0.91658849     0.03500
C676        C  0.63721964  0.35148196  0.93380441    -0.12700
C677        C  0.69040663  0.38002407  0.93292657     0.01000
C678        C  0.71733413  0.35883154  0.91614287    -0.11200
C679        C  0.69033306  0.31037046  0.89938638     0.03500
C680        C  0.63715629  0.28493077  0.89881242    -0.10600
H681        H  0.61647498  0.36565240  0.94879488     0.09100
H682        H  0.75852266  0.37975224  0.91599170     0.06600
H683        H  0.61646530  0.25041165  0.88319771     0.06400
C684        C  0.89031745  0.19676949  0.91474804     0.03500
C685        C  0.86333364  0.15030948  0.93279905    -0.12700
C686        C  0.81016304  0.12180297  0.93232196     0.01000
C687        C  0.78321509  0.14266701  0.91531751    -0.11200
C688        C  0.81022201  0.19058170  0.89778624     0.03500
C689        C  0.86338272  0.21555669  0.89647357    -0.10600
H690        H  0.88402451  0.13665560  0.94821557     0.09100
H691        H  0.74203140  0.12198708  0.91567026     0.06600
H692        H  0.88391923  0.24933818  0.88015389     0.06400
O693        O  0.94862299  0.26042779  0.63061262    -0.71400
O694        O  0.55298164  0.31160138  0.70065474    -0.71700
O695        O  0.55267280  0.31311068  0.62993838    -0.71500
O696        O  0.94897593  0.26204908  0.70128396    -0.71500
O697        O  0.94766850  0.18993996  0.70093215    -0.71500
O698        O  0.55139593  0.24100699  0.62998703    -0.71500
O699        O  0.55170705  0.23950746  0.70071935    -0.71400
O700        O  0.94737669  0.18833671  0.63023448    -0.71600
V701        V  0.50082548  0.28540096  0.66562825     1.35200
V702        V  0.99954252  0.21609778  0.66547578     1.35200
C703        C  0.92802377  0.21441001  0.62011107     0.77800
C704        C  0.57236287  0.28531667  0.71098288     0.77900
C705        C  0.57191815  0.28700361  0.61947383     0.77700
C706        C  0.92830695  0.21623089  0.71148327     0.77700
C707        C  0.80649147  0.19742030  0.58075458     0.03500
C708        C  0.85227565  0.21663037  0.59936804    -0.12700
C709        C  0.87995510  0.19119930  0.59923717     0.01000
C710        C  0.85878972  0.14297522  0.58215881    -0.11200
C711        C  0.81123631  0.12201944  0.56461219     0.03500
C712        C  0.78691966  0.15060913  0.56319318    -0.10600
H713        H  0.86586408  0.25101484  0.61507466     0.09100
H714        H  0.87890692  0.12206994  0.58258658     0.06600
H715        H  0.75276223  0.13670038  0.54739683     0.06400
C716        C  0.69352369  0.30396364  0.57982695     0.03500
C717        C  0.64736948  0.28453417  0.59813069    -0.12700
C718        C  0.61994420  0.31018377  0.59833114     0.01000
C719        C  0.64152669  0.35865305  0.58158509    -0.11200
C720        C  0.68940770  0.37977073  0.56420245     0.03500
C721        C  0.71373950  0.35115476  0.56273564    -0.10600
H722        H  0.63346391  0.24991457  0.61355289     0.09100
H723        H  0.62152425  0.37967167  0.58220371     0.06600
H724        H  0.74846426  0.36534361  0.54738116     0.06400
O725        O  0.81114144  0.26022057  0.86726749    -0.71400
O726        O  0.75839241  0.31186667  0.79755532    -0.71700
O727        O  0.76059260  0.31320053  0.86821357    -0.71500
O728        O  0.81241385  0.26230965  0.79663362    -0.71500
O729        O  0.74095400  0.19028132  0.79681945    -0.71500
O730        O  0.68925530  0.24103125  0.86825693    -0.71500
O731        O  0.68697473  0.23979768  0.79757833    -0.71400
O732        O  0.73975742  0.18809951  0.86746321    -0.71600
V733        V  0.78423089  0.28550568  0.83241611     1.35200
V734        V  0.71563883  0.21621909  0.83252324     1.35200
C735        C  0.78537813  0.21406925  0.87752179     0.77800
C736        C  0.71244748  0.28558608  0.78735283     0.77900
C737        C  0.71510167  0.28707443  0.87867915     0.77700
C738        C  0.78684988  0.21655100  0.78636952     0.77700
C739        C  0.80575529  0.11135773  0.75074028     0.03500
C740        C  0.85192196  0.13817028  0.73248561    -0.12700
C741        C  0.87993680  0.19162272  0.73228891     0.01000
C742        C  0.85872583  0.21880367  0.74885710    -0.11200
C743        C  0.81060949  0.19178716  0.76607007     0.03500
C744        C  0.78578066  0.13846291  0.76752422    -0.10600
H745        H  0.86556420  0.11707379  0.71735662     0.09100
H746        H  0.87920208  0.26013474  0.74831903     0.06600
H747        H  0.75099281  0.11770721  0.78284088     0.06400
C748        C  0.69410483  0.39047846  0.75051924     0.03500
C749        C  0.64891727  0.36338452  0.73138338    -0.12700
C750        C  0.62058318  0.30996701  0.73178268     0.01000
C751        C  0.64114948  0.28293885  0.74921492    -0.11200
C752        C  0.68871639  0.31016423  0.76695867     0.03500
C753        C  0.71327427  0.36349698  0.76836446    -0.10600
H754        H  0.63617343  0.38413145  0.71515858     0.09100
H755        H  0.62064802  0.24160420  0.74889814     0.06600
H756        H  0.74729977  0.38428552  0.78430354     0.06400
C757        C  0.77753179  0.05481445  0.75165903    -0.05100
C758        C  0.72413328  0.02806048  0.75056515    -0.32500
C759        C  0.69641250  0.47488524  0.75164853     0.36700
C760        C  0.72211687  0.44710605  0.75130244    -0.05500
C761        C  0.77557475  0.47397268  0.75214973    -0.32400
C762        C  0.80303768  0.02701048  0.75393896     0.36600
H763        H  0.70332724  0.04820630  0.74902870     0.17000
O764        O  0.64444039  0.45072564  0.75505811    -0.59900
H765        H  0.79661044  0.45400534  0.75175093     0.17000
O766        O  0.85469936  0.05096958  0.75864752    -0.60000
H767        H  0.85999854  0.05773106  0.78461434     0.44000
H768        H  0.63198335  0.45795828  0.73267204     0.43900
C769        C  0.77806275  0.22527617  0.58015782    -0.05100
C770        C  0.72456493  0.19755994  0.57957770    -0.32500
C771        C  0.69661226  0.22234515  0.57793204     0.36700
C772        C  0.72188129  0.27609382  0.57954044    -0.05500
C773        C  0.77532527  0.30379875  0.58065589    -0.32400
C774        C  0.80330583  0.27909491  0.57942187     0.36600
H775        H  0.70379888  0.15624483  0.58012729     0.17000
O776        O  0.64500322  0.19376094  0.57267528    -0.59900
H777        H  0.79596551  0.34507883  0.58210693     0.17000
O778        O  0.85523474  0.30824498  0.57663950    -0.60000
H779        H  0.86267535  0.30917386  0.55078069     0.44000
H780        H  0.63083837  0.17275563  0.59451142     0.43900
C781        C  0.55393920  0.27633440  0.91625107    -0.05100
C782        C  0.52826528  0.30383473  0.91492279    -0.32500
C783        C  0.97532434  0.27885208  0.91543445     0.36700
C784        C  0.94672016  0.22500048  0.91473906    -0.05500
C785        C  0.97251405  0.19753699  0.91507770    -0.32400
C786        C  0.52523794  0.22253231  0.91747454     0.36600
H787        H  0.54908403  0.34513555  0.91383101     0.17000
O788        O  0.95221473  0.30748045  0.91884922    -0.59900
H789        H  0.95187288  0.15622908  0.91412049     0.17000
O790        O  0.54790550  0.19372629  0.92190537    -0.60000
H791        H  0.55316766  0.19349220  0.94798503     0.44000
H792        H  0.95981896  0.32733726  0.89640839     0.43900
O793        O  0.75929727  0.94903716  0.03365991    -0.71400
O794        O  0.81132820  0.55355173  0.46328070    -0.71700
O795        O  0.81304799  0.55344365  0.03394028    -0.71500
O796        O  0.76096067  0.94926523  0.46307399    -0.72700
O797        O  0.68950524  0.94877304  0.46350141    -0.71500
O798        O  0.74162695  0.55302212  0.03400682    -0.71500
O799        O  0.73987608  0.55305620  0.46336651    -0.71400
O800        O  0.68792342  0.94870496  0.03409685    -0.71600
V801        V  0.78477762  0.50133772  0.49849624     1.35200
V802        V  0.71614190  0.00090989  0.99874411     1.35200
C803        C  0.71338348  0.92869441  0.04407715     0.77800
C804        C  0.78543796  0.57334050  0.45299163     0.77900
C805        C  0.78750784  0.57331244  0.04425582     0.77700
C806        C  0.71531712  0.92887597  0.45307869     0.77700
C807        C  0.61027596  0.80435371  0.41658840     0.03500
C808        C  0.63721960  0.85148187  0.43380439    -0.12700
C809        C  0.69040653  0.88002399  0.43292648     0.01000
C810        C  0.71733400  0.85883151  0.41614273    -0.11200
C811        C  0.69033298  0.81037046  0.39938627     0.03500
C812        C  0.63715626  0.78493083  0.39881230    -0.10600
H813        H  0.61647495  0.86565215  0.44879498     0.09100
H814        H  0.75852247  0.87975214  0.41599160     0.06600
H815        H  0.61646528  0.75041171  0.38319765     0.06400
C816        C  0.89031747  0.69676954  0.41474813     0.03500
C817        C  0.86333367  0.65030955  0.43279914    -0.12700
C818        C  0.81016310  0.62180304  0.43232202     0.01000
C819        C  0.78321517  0.64266710  0.41531756    -0.11200
C820        C  0.81022205  0.69058172  0.39778627     0.03500
C821        C  0.86338273  0.71555673  0.39647365    -0.10600
H822        H  0.88402449  0.63665565  0.44821569     0.09100
H823        H  0.74203150  0.62198721  0.41567033     0.06600
H824        H  0.88391923  0.74933823  0.38015402     0.06400
O825        O  0.94862307  0.76042784  0.13061255    -0.71400
O826        O  0.55298151  0.81160133  0.20065481    -0.71700
O827        O  0.55267282  0.81311071  0.12993836    -0.71500
O828        O  0.94897583  0.76204901  0.20128378    -0.71500
O829        O  0.94766851  0.68993995  0.20093215    -0.71500
O830        O  0.55139598  0.74100703  0.12998705    -0.71500
O831        O  0.55170710  0.73950750  0.20071940    -0.71400
O832        O  0.94737669  0.68833673  0.13023447    -0.71600
V833        V  0.50082549  0.78540092  0.16562822     1.35200
V834        V  0.99954254  0.71609775  0.16547576     1.35200
C835        C  0.92802377  0.71441002  0.12011105     0.77800
C836        C  0.57236279  0.78531665  0.21098297     0.77900
C837        C  0.57191815  0.78700363  0.11947380     0.77700
C838        C  0.92830687  0.71623086  0.21148316     0.77700
C839        C  0.80649136  0.69742020  0.08075464     0.03500
C840        C  0.85227563  0.71663038  0.09936804    -0.12700
C841        C  0.87995507  0.69119932  0.09923720     0.01000
C842        C  0.85878963  0.64297519  0.08215891    -0.11200
C843        C  0.81123620  0.62201940  0.06461225     0.03500
C844        C  0.78691952  0.65060901  0.06319323    -0.10600
H845        H  0.86586412  0.75101495  0.11507459     0.09100
H846        H  0.87890686  0.62206994  0.08258671     0.06600
H847        H  0.75276210  0.63670026  0.04739685     0.06400
C848        C  0.69352368  0.80396358  0.07982701     0.03500
C849        C  0.64736946  0.78453415  0.09813072    -0.12700
C850        C  0.61994418  0.81018377  0.09833109     0.01000
C851        C  0.64152672  0.85865304  0.08158500    -0.11200
C852        C  0.68940781  0.87977073  0.06420245     0.03500
C853        C  0.71373959  0.85115473  0.06273571    -0.10600
H854        H  0.63346387  0.74991456  0.11355294     0.09100
H855        H  0.62152429  0.87967170  0.08220351     0.06600
H856        H  0.74846438  0.86534355  0.04738123     0.06400
O857        O  0.81114139  0.76022056  0.36726758    -0.71400
O858        O  0.75839243  0.81186665  0.29755538    -0.71700
O859        O  0.76059261  0.81320043  0.36821366    -0.71500
O860        O  0.81241384  0.76230970  0.29663365    -0.71500
O861        O  0.74095398  0.69028136  0.29681944    -0.71500
O862        O  0.68925532  0.74103113  0.36825702    -0.71500
O863        O  0.68697477  0.73979765  0.29757836    -0.71400
O864        O  0.73975744  0.68809941  0.36746318    -0.71600
V865        V  0.78423088  0.78550565  0.33241618     1.35200
V866        V  0.71563883  0.71621904  0.33252328     1.35200
C867        C  0.78537811  0.71406919  0.37752181     0.77800
C868        C  0.71244751  0.78558603  0.28735283     0.77900
C869        C  0.71510167  0.78707436  0.37867920     0.77700
C870        C  0.78684984  0.71655108  0.28636947     0.77700
C871        C  0.80575530  0.61135782  0.25074036     0.03500
C872        C  0.85192191  0.63817031  0.23248559    -0.12700
C873        C  0.87993672  0.69162274  0.23228879     0.01000
C874        C  0.85872574  0.71880377  0.24885692    -0.11200
C875        C  0.81060942  0.69178730  0.26606998     0.03500
C876        C  0.78578069  0.63846306  0.26752431    -0.10600
H877        H  0.86556412  0.61707375  0.21735660     0.09100
H878        H  0.87920203  0.76013485  0.24831879     0.06600
H879        H  0.75099294  0.61770742  0.28284111     0.06400
C880        C  0.69410475  0.89047844  0.25051927     0.03500
C881        C  0.64891728  0.86338452  0.23138333    -0.12700
C882        C  0.62058312  0.80996701  0.23178272     0.01000
C883        C  0.64114950  0.78293883  0.24921484    -0.11200
C884        C  0.68871639  0.81016419  0.26695866     0.03500
C885        C  0.71327415  0.86349697  0.26836455    -0.10600
H886        H  0.63617358  0.88413144  0.21515838     0.09100
H887        H  0.62064810  0.74160418  0.24889791     0.06600
H888        H  0.74729965  0.88428551  0.28430366     0.06400
C889        C  0.77753176  0.55481454  0.25165914    -0.05100
C890        C  0.72413327  0.52806057  0.25056521    -0.32500
C891        C  0.69641243  0.97488518  0.25164842     0.36700
C892        C  0.72211681  0.94710601  0.25130238    -0.05500
C893        C  0.77557469  0.97397261  0.25214978    -0.32400
C894        C  0.80303761  0.52701054  0.25393901     0.36600
H895        H  0.70332724  0.54820640  0.24902883     0.17000
O896        O  0.64444030  0.95072553  0.25505794    -0.59900
H897        H  0.79661030  0.95400518  0.25175100     0.17000
O898        O  0.85469930  0.55096958  0.25864741    -0.60000
H899        H  0.85999866  0.55773107  0.28461420     0.44000
H900        H  0.63198325  0.95795812  0.23267187     0.43900
C901        C  0.77806270  0.72527613  0.08015785    -0.05100
C902        C  0.72456490  0.69755990  0.07957759    -0.32500
C903        C  0.69661219  0.72234506  0.07793196     0.36700
C904        C  0.72188121  0.77609371  0.07954049    -0.05500
C905        C  0.77532518  0.80379865  0.08065596    -0.32400
C906        C  0.80330575  0.77909483  0.07942197     0.36600
H907        H  0.70379886  0.65624482  0.08012715     0.17000
O908        O  0.64500312  0.69376075  0.07267535    -0.59900
H909        H  0.79596542  0.84507874  0.08210702     0.17000
O910        O  0.85523464  0.80824493  0.07663957    -0.60000
H911        H  0.86267522  0.80917363  0.05078089     0.44000
H912        H  0.63083844  0.67275550  0.09451154     0.43900
C913        C  0.55393920  0.77633443  0.41625106    -0.05100
C914        C  0.52826531  0.80383475  0.41492270    -0.32500
C915        C  0.97532436  0.77885213  0.41543450     0.36700
C916        C  0.94672017  0.72500052  0.41473911    -0.05500
C917        C  0.97251406  0.69753701  0.41507765    -0.32400
C918        C  0.52523796  0.72253237  0.41747459     0.36600
H919        H  0.54908407  0.84513553  0.41383076     0.17000
O920        O  0.95221482  0.80748056  0.41884931    -0.59900
H921        H  0.95187291  0.65622907  0.41412035     0.17000
O922        O  0.54790553  0.69372644  0.42190543    -0.60000
H923        H  0.55316760  0.69349232  0.44798547     0.44000
H924        H  0.95981910  0.82733740  0.39640847     0.43900
O925        O  0.75929721  0.94903714  0.53365985    -0.71400
O926        O  0.81132816  0.55355175  0.96328069    -0.71700
O927        O  0.81304802  0.55344353  0.53394024    -0.71500
O928        O  0.76096070  0.94926519  0.96307410    -0.72700
O929        O  0.68950529  0.94877303  0.96350145    -0.71500
O930        O  0.74162699  0.55302200  0.53400681    -0.71500
O931        O  0.73987607  0.55305629  0.96336653    -0.71400
O932        O  0.68792342  0.94870506  0.53409683    -0.71600
V933        V  0.78477763  0.50133785  0.99849629     1.35200
V934        V  0.71614191  0.00090994  0.49874407     1.35200
C935        C  0.71338347  0.92869450  0.54407715     0.77800
C936        C  0.78543792  0.57334050  0.95299158     0.77900
C937        C  0.78750790  0.57331236  0.54425577     0.77700
C938        C  0.71531717  0.92887596  0.95307876     0.77700
C939        C  0.61027596  0.80435374  0.91658848     0.03500
C940        C  0.63721964  0.85148199  0.93380436    -0.12700
C941        C  0.69040661  0.88002404  0.93292653     0.01000
C942        C  0.71733410  0.85883153  0.91614284    -0.11200
C943        C  0.69033304  0.81037047  0.89938638     0.03500
C944        C  0.63715625  0.78493079  0.89881247    -0.10600
H945        H  0.61647503  0.86565243  0.94879485     0.09100
H946        H  0.75852261  0.87975223  0.91599168     0.06600
H947        H  0.61646524  0.75041168  0.88319780     0.06400
C948        C  0.89031751  0.69676958  0.91474809     0.03500
C949        C  0.86333370  0.65030956  0.93279908    -0.12700
C950        C  0.81016311  0.62180300  0.93232193     0.01000
C951        C  0.78321519  0.64266708  0.91531750    -0.11200
C952        C  0.81022208  0.69058172  0.89778623     0.03500
C953        C  0.86338277  0.71555672  0.89647358    -0.10600
H954        H  0.88402454  0.63665569  0.94821565     0.09100
H955        H  0.74203153  0.62198719  0.91567026     0.06600
H956        H  0.88391929  0.74933819  0.88015390     0.06400
O957        O  0.94862303  0.76042778  0.63061259    -0.71400
O958        O  0.55298159  0.81160130  0.70065476    -0.71700
O959        O  0.55267279  0.81311072  0.62993838    -0.71500
O960        O  0.94897591  0.76204902  0.70128393    -0.71500
O961        O  0.94766850  0.68993992  0.70093218    -0.71500
O962        O  0.55139597  0.74100705  0.62998702    -0.71500
O963        O  0.55170705  0.73950739  0.70071936    -0.71400
O964        O  0.94737670  0.68833668  0.63023447    -0.71600
V965        V  0.50082549  0.78540091  0.66562826     1.35200
V966        V  0.99954254  0.71609773  0.66547577     1.35200
C967        C  0.92802378  0.71440997  0.62011106     0.77800
C968        C  0.57236282  0.78531658  0.71098290     0.77900
C969        C  0.57191817  0.78700367  0.61947382     0.77700
C970        C  0.92830693  0.71623088  0.71148326     0.77700
C971        C  0.80649141  0.69742022  0.58075458     0.03500
C972        C  0.85227557  0.71663029  0.59936807    -0.12700
C973        C  0.87995507  0.69119925  0.59923720     0.01000
C974        C  0.85878971  0.64297517  0.58215885    -0.11200
C975        C  0.81123631  0.62201939  0.56461216     0.03500
C976        C  0.78691960  0.65060903  0.56319315    -0.10600
H977        H  0.86586398  0.75101478  0.61507467     0.09100
H978        H  0.87890693  0.62206990  0.58258670     0.06600
H979        H  0.75276216  0.63670026  0.54739681     0.06400
C980        C  0.69352367  0.80396365  0.57982692     0.03500
C981        C  0.64736946  0.78453421  0.59813065    -0.12700
C982        C  0.61994424  0.81018386  0.59833114     0.01000
C983        C  0.64152677  0.85865315  0.58158509    -0.11200
C984        C  0.68940779  0.87977084  0.56420247     0.03500
C985        C  0.71373954  0.85115482  0.56273565    -0.10600
H986        H  0.63346383  0.74991458  0.61355280     0.09100
H987        H  0.62152433  0.87967179  0.58220369     0.06600
H988        H  0.74846428  0.86534366  0.54738116     0.06400
O989        O  0.81114147  0.76022051  0.86726748    -0.71400
O990        O  0.75839241  0.81186658  0.79755531    -0.71700
O991        O  0.76059264  0.81320045  0.86821363    -0.71500
O992        O  0.81241384  0.76230965  0.79663361    -0.71500
O993        O  0.74095396  0.69028134  0.79681943    -0.71500
O994        O  0.68925526  0.74103126  0.86825690    -0.71500
O995        O  0.68697469  0.73979765  0.79757835    -0.71400
O996        O  0.73975742  0.68809947  0.86746321    -0.71600
V997        V  0.78423089  0.78550562  0.83241612     1.35200
V998        V  0.71563880  0.71621907  0.83252324     1.35200
C999        C  0.78537814  0.71406919  0.87752177     0.77800
C1000       C  0.71244745  0.78558601  0.78735283     0.77900
C1001       C  0.71510166  0.78707442  0.87867915     0.77700
C1002       C  0.78684982  0.71655099  0.78636950     0.77700
C1003       C  0.80575524  0.61135777  0.75074030     0.03500
C1004       C  0.85192191  0.63817033  0.73248559    -0.12700
C1005       C  0.87993678  0.69162274  0.73228889     0.01000
C1006       C  0.85872581  0.71880372  0.74885707    -0.11200
C1007       C  0.81060944  0.69178719  0.76607008     0.03500
C1008       C  0.78578064  0.63846295  0.76752430    -0.10600
H1009       H  0.86556413  0.61707381  0.71735657     0.09100
H1010       H  0.87920204  0.76013480  0.74831900     0.06600
H1011       H  0.75099281  0.61770726  0.78284101     0.06400
C1012       C  0.69410477  0.89047842  0.75051927     0.03500
C1013       C  0.64891722  0.86338448  0.73138341    -0.12700
C1014       C  0.62058313  0.80996697  0.73178269     0.01000
C1015       C  0.64114947  0.78293882  0.74921486    -0.11200
C1016       C  0.68871636  0.81016419  0.76695867     0.03500
C1017       C  0.71327418  0.86349693  0.76836449    -0.10600
H1018       H  0.63617341  0.88413143  0.71515860     0.09100
H1019       H  0.62064804  0.74160419  0.74889799     0.06600
H1020       H  0.74729967  0.88428546  0.78430359     0.06400
C1021       C  0.77753177  0.55481449  0.75165903    -0.05100
C1022       C  0.72413324  0.52806048  0.75056516    -0.32500
C1023       C  0.69641253  0.97488526  0.75164853     0.36700
C1024       C  0.72211686  0.94710601  0.75130244    -0.05500
C1025       C  0.77557474  0.97397260  0.75214975    -0.32400
C1026       C  0.80303762  0.52701050  0.75393891     0.36600
H1027       H  0.70332720  0.54820627  0.74902871     0.17000
O1028       O  0.64444046  0.95072569  0.75505812    -0.59900
H1029       H  0.79661034  0.95400518  0.75175097     0.17000
O1030       O  0.85469936  0.55096960  0.75864737    -0.60000
H1031       H  0.85999867  0.55773115  0.78461362     0.44000
H1032       H  0.63198341  0.95795815  0.73267190     0.43900
C1033       C  0.77806279  0.72527621  0.58015780    -0.05100
C1034       C  0.72456501  0.69756000  0.57957769    -0.32500
C1035       C  0.69661225  0.72234511  0.57793204     0.36700
C1036       C  0.72188122  0.77609376  0.57954042    -0.05500
C1037       C  0.77532518  0.80379869  0.58065588    -0.32400
C1038       C  0.80330581  0.77909491  0.57942187     0.36600
H1039       H  0.70379901  0.65624493  0.58012729     0.17000
O1040       O  0.64500326  0.69376079  0.57267526    -0.59900
H1041       H  0.79596536  0.84507874  0.58210694     0.17000
O1042       O  0.85523470  0.80824508  0.57663950    -0.60000
H1043       H  0.86267535  0.80917376  0.55078071     0.44000
H1044       H  0.63083830  0.67275540  0.59451169     0.43900
C1045       C  0.55393919  0.77633451  0.91625107    -0.05100
C1046       C  0.52826531  0.80383487  0.91492279    -0.32500
C1047       C  0.97532443  0.77885220  0.91543445     0.36700
C1048       C  0.94672021  0.72500060  0.91473908    -0.05500
C1049       C  0.97251407  0.69753708  0.91507770    -0.32400
C1050       C  0.52523790  0.72253241  0.91747454     0.36600
H1051       H  0.54908410  0.84513569  0.91383101     0.17000
O1052       O  0.95221489  0.80748064  0.91884922    -0.59900
H1053       H  0.95187285  0.65622914  0.91412049     0.17000
O1054       O  0.54790548  0.69372641  0.92190538    -0.60000
H1055       H  0.55316737  0.69349210  0.94798506     0.44000
H1056       H  0.95981914  0.82733744  0.89640838     0.43900
loop_ 
_geom_bond_atom_site_label_1 
_geom_bond_atom_site_label_2 
_geom_bond_distance 
_geom_bond_site_symmetry_2 
_ccdc_geom_bond_type 
O1           C11   1.271       .  A
O1          V405   1.902   1_554  S
O2           C12   1.271       .  A
O2            V9   1.901       .  S
O3           C13   1.261       .  A
O3          V141   1.906   1_554  S
O4           C14   1.261       .  A
O4          V273   1.905       .  S
O5           C14   1.270       .  A
O5          V142   1.900       .  S
O6           C13   1.270       .  A
O6          V274   1.900   1_554  S
O7           C12   1.261       .  A
O7          V406   1.906       .  S
O8           C11   1.261       .  A
O8           V10   1.906   1_554  S
V9          O397   1.902   1_545  S
V9          O135   1.906       .  S
V9          O268   1.905   1_545  S
V9          V406   2.085       .  T
V10         O137   1.900       .  S
V10         O270   1.900   1_556  S
V10         O403   1.906       .  S
V10         V405   2.085       .  T
C11          C60   1.488       .  S
C12          C26   1.488       .  S
C13          C51   1.487       .  S
C14          C17   1.486       .  S
C15         C121   1.481       .  S
C15          C16   1.396       .  A
C15          C20   1.395       .  A
C16          C17   1.399       .  A
C16          H21   1.083       .  S
C17          C18   1.418       .  A
C18          C19   1.418       .  A
C18          H22   1.083       .  S
C19          C77   1.485       .  S
C19          C20   1.399       .  A
C20          H23   1.082       .  S
C24         C124   1.483       .  S
C24          C25   1.397       .  A
C24          C29   1.396       .  A
C25          C26   1.399       .  A
C25          H30   1.082       .  S
C26          C27   1.419       .  A
C27          C28   1.419       .  A
C27          H31   1.083       .  S
C28          C75   1.487       .  S
C28          C29   1.400       .  A
C29          H32   1.081       .  S
O33          C43   1.270       .  A
O33         V569   1.903       .  S
O34          C44   1.271       .  A
O34          V41   1.902       .  S
O35          C45   1.262       .  A
O35          V41   1.908       .  S
O36          C46   1.262       .  A
O36         V569   1.908       .  S
O37          C46   1.271       .  A
O37          V42   1.902       .  S
O38          C45   1.270       .  A
O38         V570   1.903   1_455  S
O39          C44   1.262       .  A
O39         V570   1.910   1_455  S
O40          C43   1.262       .  A
O40          V42   1.908       .  S
V41         O561   1.903   1_455  S
V41         O564   1.908   1_455  S
V41         V570   2.085   1_455  T
V42         O566   1.903       .  S
V42         O567   1.910       .  S
V42         V569   2.085       .  T
C43          C49   1.489       .  S
C44          C90   1.490       .  S
C45          C58   1.489       .  S
C46          C81   1.490       .  S
C47         C109   1.486       .  S
C47          C48   1.399       .  A
C47          C52   1.397       .  A
C48          C49   1.402       .  A
C48          H53   1.082       .  S
C49          C50   1.419       .  A
C50          C51   1.418       .  A
C50          H54   1.083       .  S
C51          C52   1.399       .  A
C52          H55   1.082       .  S
C56         C112   1.484       .  S
C56          C57   1.397       .  A
C56          C61   1.397       .  A
C57          C58   1.401       .  A
C57          H62   1.081       .  S
C58          C59   1.419       .  A
C59          C60   1.419       .  A
C59          H63   1.083       .  S
C60          C61   1.399       .  A
C61          H64   1.083       .  S
O65          C75   1.271       .  A
O65          V73   1.902       .  S
O66          C76   1.271       .  A
O66          V73   1.902       .  S
O67          C77   1.261       .  A
O67          V73   1.905       .  S
O68          C78   1.261       .  A
O68          V73   1.906       .  S
O69          C78   1.271       .  A
O69          V74   1.900       .  S
O70          C77   1.270       .  A
O70          V74   1.900       .  S
O71          C76   1.261       .  A
O71          V74   1.907       .  S
O72          C75   1.261       .  A
O72          V74   1.906       .  S
V73          V74   2.085       .  T
C76          C92   1.489       .  S
C78          C83   1.488       .  S
C79          C97   1.481       .  S
C79          C80   1.396       .  A
C79          C84   1.395       .  A
C80          C81   1.400       .  A
C80          H85   1.082       .  S
C81          C82   1.421       .  A
C82          C83   1.421       .  A
C82          H86   1.083       .  S
C83          C84   1.399       .  A
C84          H87   1.083       .  S
C88         C100   1.484       .  S
C88          C89   1.395       .  A
C88          C93   1.396       .  A
C89          C90   1.400       .  A
C89          H94   1.081       .  S
C90          C91   1.421       .  A
C91          C92   1.421       .  A
C91          H95   1.083       .  S
C92          C93   1.400       .  A
C93          H96   1.082       .  S
C97          C98   1.405       .  A
C97         C102   1.410       .  A
C98         C363   1.394   1_545  A
C98         H103   1.083       .  S
C99         C100   1.412       .  A
C99         C362   1.394       .  A
C99         O104   1.374       .  S
C100        C101   1.406       .  A
C101        C366   1.391       .  A
C101        H105   1.082       .  S
C102        C365   1.391   1_545  A
C102        O106   1.372       .  S
O104        H108   0.992       .  S
O106        H107   0.992       .  S
C109        C110   1.407       .  A
C109        C114   1.411       .  A
C110        C111   1.394       .  A
C110        H115   1.082       .  S
C111        C112   1.410       .  A
C111        O116   1.374       .  S
C112        C113   1.406       .  A
C113        C114   1.392       .  A
C113        H117   1.083       .  S
C114        O118   1.372       .  S
O116        H120   0.992       .  S
O118        H119   0.992       .  S
C121        C122   1.405       .  A
C121        C126   1.411       .  A
C122        C651   1.393   1_455  A
C122        H127   1.083       .  S
C123        C124   1.411       .  A
C123        C650   1.393       .  A
C123        O128   1.373       .  S
C124        C125   1.406       .  A
C125        C654   1.390       .  A
C125        H129   1.083       .  S
C126        C653   1.390   1_455  A
C126        O130   1.372       .  S
O128        H132   0.992       .  S
O130        H131   0.992       .  S
O133        C143   1.271       .  A
O133        V273   1.902       .  S
O134        C144   1.271       .  A
O134        V141   1.901       .  S
O135        C145   1.261       .  A
O136        C146   1.261       .  A
O136        V405   1.905       .  S
O137        C146   1.270       .  A
O138        C145   1.270       .  A
O138        V406   1.900       .  S
O139        C144   1.261       .  A
O139        V274   1.906       .  S
O140        C143   1.261       .  A
O140        V142   1.906       .  S
V141        O265   1.902   1_546  S
V141        O400   1.905   1_545  S
V141        V274   2.085       .  T
V142        O402   1.900       .  S
V142        O271   1.906       .  S
V142        V273   2.085       .  T
C143        C192   1.488       .  S
C144        C158   1.488       .  S
C145        C183   1.487       .  S
C146        C149   1.486       .  S
C147        C253   1.481       .  S
C147        C148   1.396       .  A
C147        C152   1.395       .  A
C148        C149   1.399       .  A
C148        H153   1.083       .  S
C149        C150   1.418       .  A
C150        C151   1.418       .  A
C150        H154   1.083       .  S
C151        C209   1.485       .  S
C151        C152   1.399       .  A
C152        H155   1.082       .  S
C156        C256   1.483       .  S
C156        C157   1.397       .  A
C156        C161   1.396       .  A
C157        C158   1.399       .  A
C157        H162   1.082       .  S
C158        C159   1.419       .  A
C159        C160   1.419       .  A
C159        H163   1.083       .  S
C160        C207   1.487       .  S
C160        C161   1.400       .  A
C161        H164   1.081       .  S
O165        C175   1.270       .  A
O165        V701   1.903       .  S
O166        C176   1.271       .  A
O166        V173   1.902       .  S
O167        C177   1.262       .  A
O167        V173   1.908       .  S
O168        C178   1.262       .  A
O168        V701   1.908       .  S
O169        C178   1.271       .  A
O169        V174   1.902       .  S
O170        C177   1.270       .  A
O170        V702   1.903   1_455  S
O171        C176   1.262       .  A
O171        V702   1.910   1_455  S
O172        C175   1.262       .  A
O172        V174   1.908       .  S
V173        O693   1.903   1_455  S
V173        O696   1.908   1_455  S
V173        V702   2.085   1_455  T
V174        O698   1.903       .  S
V174        O699   1.910       .  S
V174        V701   2.085       .  T
C175        C181   1.489       .  S
C176        C222   1.490       .  S
C177        C190   1.489       .  S
C178        C213   1.490       .  S
C179        C241   1.486       .  S
C179        C180   1.399       .  A
C179        C184   1.397       .  A
C180        C181   1.402       .  A
C180        H185   1.082       .  S
C181        C182   1.419       .  A
C182        C183   1.418       .  A
C182        H186   1.083       .  S
C183        C184   1.399       .  A
C184        H187   1.082       .  S
C188        C244   1.484       .  S
C188        C189   1.397       .  A
C188        C193   1.397       .  A
C189        C190   1.401       .  A
C189        H194   1.081       .  S
C190        C191   1.419       .  A
C191        C192   1.419       .  A
C191        H195   1.083       .  S
C192        C193   1.399       .  A
C193        H196   1.083       .  S
O197        C207   1.271       .  A
O197        V205   1.902       .  S
O198        C208   1.271       .  A
O198        V205   1.902       .  S
O199        C209   1.261       .  A
O199        V205   1.905       .  S
O200        C210   1.261       .  A
O200        V205   1.906       .  S
O201        C210   1.271       .  A
O201        V206   1.900       .  S
O202        C209   1.270       .  A
O202        V206   1.900       .  S
O203        C208   1.261       .  A
O203        V206   1.907       .  S
O204        C207   1.261       .  A
O204        V206   1.906       .  S
V205        V206   2.085       .  T
C208        C224   1.489       .  S
C210        C215   1.488       .  S
C211        C229   1.481       .  S
C211        C212   1.396       .  A
C211        C216   1.395       .  A
C212        C213   1.400       .  A
C212        H217   1.082       .  S
C213        C214   1.421       .  A
C214        C215   1.421       .  A
C214        H218   1.083       .  S
C215        C216   1.399       .  A
C216        H219   1.083       .  S
C220        C232   1.484       .  S
C220        C221   1.395       .  A
C220        C225   1.396       .  A
C221        C222   1.400       .  A
C221        H226   1.081       .  S
C222        C223   1.421       .  A
C223        C224   1.421       .  A
C223        H227   1.083       .  S
C224        C225   1.400       .  A
C225        H228   1.082       .  S
C229        C230   1.405       .  A
C229        C234   1.410       .  A
C230        C495   1.394   1_545  A
C230        H235   1.083       .  S
C231        C494   1.394       .  A
C231        C232   1.412       .  A
C231        O236   1.374       .  S
C232        C233   1.406       .  A
C233        C498   1.391       .  A
C233        H237   1.082       .  S
C234        C497   1.391   1_545  A
C234        O238   1.372       .  S
O236        H240   0.992       .  S
O238        H239   0.991       .  S
C241        C242   1.407       .  A
C241        C246   1.411       .  A
C242        C243   1.394       .  A
C242        H247   1.082       .  S
C243        C244   1.410       .  A
C243        O248   1.374       .  S
C244        C245   1.406       .  A
C245        C246   1.392       .  A
C245        H249   1.083       .  S
C246        O250   1.372       .  S
O248        H252   0.992       .  S
O250        H251   0.992       .  S
C253        C254   1.405       .  A
C253        C258   1.411       .  A
C254        C783   1.393   1_455  A
C254        H259   1.083       .  S
C255        C782   1.393       .  A
C255        C256   1.411       .  A
C255        O260   1.373       .  S
C256        C257   1.406       .  A
C257        C786   1.390       .  A
C257        H261   1.083       .  S
C258        C785   1.390   1_455  A
C258        O262   1.372       .  S
O260        H264   0.992       .  S
O262        H263   0.992       .  S
O265        C275   1.271       .  A
O266        C276   1.271       .  A
O266        V273   1.901       .  S
O267        C277   1.261       .  A
O267        V405   1.906   1_554  S
O268        C278   1.261       .  A
O269        C278   1.270       .  A
O269        V406   1.900   1_565  S
O270        C277   1.270       .  A
O271        C276   1.261       .  A
O272        C275   1.261       .  A
O272        V274   1.906   1_564  S
V273        O399   1.906       .  S
V274        O401   1.900   1_545  S
C275        C324   1.488       .  S
C276        C290   1.488       .  S
C277        C315   1.487       .  S
C278        C281   1.486       .  S
C279        C385   1.481       .  S
C279        C280   1.396       .  A
C279        C284   1.395       .  A
C280        C281   1.399       .  A
C280        H285   1.083       .  S
C281        C282   1.418       .  A
C282        C283   1.418       .  A
C282        H286   1.083       .  S
C283        C341   1.485       .  S
C283        C284   1.399       .  A
C284        H287   1.082       .  S
C288        C388   1.483       .  S
C288        C289   1.397       .  A
C288        C293   1.396       .  A
C289        C290   1.399       .  A
C289        H294   1.082       .  S
C290        C291   1.419       .  A
C291        C292   1.419       .  A
C291        H295   1.083       .  S
C292        C339   1.487       .  S
C292        C293   1.400       .  A
C293        H296   1.081       .  S
O297        C307   1.270       .  A
O297        V833   1.903       .  S
O298        C308   1.271       .  A
O298        V305   1.902       .  S
O299        C309   1.262       .  A
O299        V305   1.908       .  S
O300        C310   1.262       .  A
O300        V833   1.908       .  S
O301        C310   1.271       .  A
O301        V306   1.902       .  S
O302        C309   1.270       .  A
O302        V834   1.903   1_455  S
O303        C308   1.262       .  A
O303        V834   1.910   1_455  S
O304        C307   1.262       .  A
O304        V306   1.908       .  S
V305        O825   1.903   1_455  S
V305        O828   1.908   1_455  S
V305        V834   2.085   1_455  T
V306        O830   1.903       .  S
V306        O831   1.910       .  S
V306        V833   2.085       .  T
C307        C313   1.489       .  S
C308        C354   1.490       .  S
C309        C322   1.489       .  S
C310        C345   1.490       .  S
C311        C373   1.486       .  S
C311        C312   1.399       .  A
C311        C316   1.397       .  A
C312        C313   1.402       .  A
C312        H317   1.082       .  S
C313        C314   1.419       .  A
C314        C315   1.418       .  A
C314        H318   1.083       .  S
C315        C316   1.399       .  A
C316        H319   1.082       .  S
C320        C376   1.484       .  S
C320        C321   1.397       .  A
C320        C325   1.397       .  A
C321        C322   1.401       .  A
C321        H326   1.081       .  S
C322        C323   1.419       .  A
C323        C324   1.419       .  A
C323        H327   1.083       .  S
C324        C325   1.399       .  A
C325        H328   1.083       .  S
O329        C339   1.271       .  A
O329        V337   1.902       .  S
O330        C340   1.271       .  A
O330        V337   1.902       .  S
O331        C341   1.261       .  A
O331        V337   1.905       .  S
O332        C342   1.261       .  A
O332        V337   1.906       .  S
O333        C342   1.271       .  A
O333        V338   1.900       .  S
O334        C341   1.270       .  A
O334        V338   1.900       .  S
O335        C340   1.261       .  A
O335        V338   1.907       .  S
O336        C339   1.261       .  A
O336        V338   1.906       .  S
V337        V338   2.085       .  T
C340        C356   1.489       .  S
C342        C347   1.488       .  S
C343        C361   1.481       .  S
C343        C344   1.396       .  A
C343        C348   1.395       .  A
C344        C345   1.400       .  A
C344        H349   1.082       .  S
C345        C346   1.421       .  A
C346        C347   1.421       .  A
C346        H350   1.083       .  S
C347        C348   1.399       .  A
C348        H351   1.083       .  S
C352        C364   1.484       .  S
C352        C353   1.395       .  A
C352        C357   1.396       .  A
C353        C354   1.400       .  A
C353        H358   1.081       .  S
C354        C355   1.421       .  A
C355        C356   1.421       .  A
C355        H359   1.083       .  S
C356        C357   1.400       .  A
C357        H360   1.082       .  S
C361        C362   1.405       .  A
C361        C366   1.410       .  A
C362        H367   1.083       .  S
C363        C364   1.412       .  A
C363        O368   1.374       .  S
C364        C365   1.406       .  A
C365        H369   1.082       .  S
C366        O370   1.372       .  S
O368        H372   0.992       .  S
O370        H371   0.992       .  S
C373        C374   1.407       .  A
C373        C378   1.411       .  A
C374        C375   1.394       .  A
C374        H379   1.082       .  S
C375        C376   1.410       .  A
C375        O380   1.374       .  S
C376        C377   1.406       .  A
C377        C378   1.392       .  A
C377        H381   1.083       .  S
C378        O382   1.372       .  S
O380        H384   0.992       .  S
O382        H383   0.992       .  S
C385        C386   1.405       .  A
C385        C390   1.411       .  A
C386        C915   1.393   1_455  A
C386        H391   1.083       .  S
C387        C914   1.393       .  A
C387        C388   1.411       .  A
C387        O392   1.373       .  S
C388        C389   1.406       .  A
C389        C918   1.390       .  A
C389        H393   1.083       .  S
C390        C917   1.390   1_455  A
C390        O394   1.372       .  S
O392        H396   0.992       .  S
O394        H395   0.992       .  S
O397        C407   1.271       .  A
O398        C408   1.271       .  A
O398        V405   1.901       .  S
O399        C409   1.261       .  A
O400        C410   1.261       .  A
O401        C410   1.270       .  A
O402        C409   1.270       .  A
O403        C408   1.261       .  A
O404        C407   1.261       .  A
O404        V406   1.906   1_565  S
C407        C456   1.488       .  S
C408        C422   1.488       .  S
C409        C447   1.487       .  S
C410        C413   1.486       .  S
C411        C517   1.481       .  S
C411        C412   1.396       .  A
C411        C416   1.395       .  A
C412        C413   1.399       .  A
C412        H417   1.083       .  S
C413        C414   1.418       .  A
C414        C415   1.418       .  A
C414        H418   1.083       .  S
C415        C473   1.485       .  S
C415        C416   1.399       .  A
C416        H419   1.082       .  S
C420        C520   1.483       .  S
C420        C421   1.397       .  A
C420        C425   1.396       .  A
C421        C422   1.399       .  A
C421        H426   1.082       .  S
C422        C423   1.419       .  A
C423        C424   1.419       .  A
C423        H427   1.083       .  S
C424        C471   1.487       .  S
C424        C425   1.400       .  A
C425        H428   1.081       .  S
O429        C439   1.270       .  A
O429        V965   1.903       .  S
O430        C440   1.271       .  A
O430        V437   1.902       .  S
O431        C441   1.262       .  A
O431        V437   1.908       .  S
O432        C442   1.262       .  A
O432        V965   1.908       .  S
O433        C442   1.271       .  A
O433        V438   1.902       .  S
O434        C441   1.270       .  A
O434        V966   1.903   1_455  S
O435        C440   1.262       .  A
O435        V966   1.910   1_455  S
O436        C439   1.262       .  A
O436        V438   1.908       .  S
V437        O957   1.903   1_455  S
V437        O960   1.908   1_455  S
V437        V966   2.085   1_455  T
V438        O962   1.903       .  S
V438        O963   1.910       .  S
V438        V965   2.085       .  T
C439        C445   1.489       .  S
C440        C486   1.490       .  S
C441        C454   1.489       .  S
C442        C477   1.490       .  S
C443        C505   1.486       .  S
C443        C444   1.399       .  A
C443        C448   1.397       .  A
C444        C445   1.402       .  A
C444        H449   1.082       .  S
C445        C446   1.419       .  A
C446        C447   1.418       .  A
C446        H450   1.083       .  S
C447        C448   1.399       .  A
C448        H451   1.082       .  S
C452        C508   1.484       .  S
C452        C453   1.397       .  A
C452        C457   1.397       .  A
C453        C454   1.401       .  A
C453        H458   1.081       .  S
C454        C455   1.419       .  A
C455        C456   1.419       .  A
C455        H459   1.083       .  S
C456        C457   1.399       .  A
C457        H460   1.083       .  S
O461        C471   1.271       .  A
O461        V469   1.902       .  S
O462        C472   1.271       .  A
O462        V469   1.902       .  S
O463        C473   1.261       .  A
O463        V469   1.905       .  S
O464        C474   1.261       .  A
O464        V469   1.906       .  S
O465        C474   1.271       .  A
O465        V470   1.900       .  S
O466        C473   1.270       .  A
O466        V470   1.900       .  S
O467        C472   1.261       .  A
O467        V470   1.907       .  S
O468        C471   1.261       .  A
O468        V470   1.906       .  S
V469        V470   2.085       .  T
C472        C488   1.489       .  S
C474        C479   1.488       .  S
C475        C493   1.481       .  S
C475        C476   1.396       .  A
C475        C480   1.395       .  A
C476        C477   1.400       .  A
C476        H481   1.082       .  S
C477        C478   1.421       .  A
C478        C479   1.421       .  A
C478        H482   1.083       .  S
C479        C480   1.399       .  A
C480        H483   1.083       .  S
C484        C496   1.484       .  S
C484        C485   1.395       .  A
C484        C489   1.396       .  A
C485        C486   1.400       .  A
C485        H490   1.081       .  S
C486        C487   1.421       .  A
C487        C488   1.421       .  A
C487        H491   1.083       .  S
C488        C489   1.400       .  A
C489        H492   1.082       .  S
C493        C494   1.405       .  A
C493        C498   1.410       .  A
C494        H499   1.083       .  S
C495        C496   1.412       .  A
C495        O500   1.374       .  S
C496        C497   1.406       .  A
C497        H501   1.082       .  S
C498        O502   1.372       .  S
O500        H504   0.992       .  S
O502        H503   0.991       .  S
C505        C506   1.407       .  A
C505        C510   1.411       .  A
C506        C507   1.394       .  A
C506        H511   1.082       .  S
C507        C508   1.410       .  A
C507        O512   1.374       .  S
C508        C509   1.406       .  A
C509        C510   1.392       .  A
C509        H513   1.083       .  S
C510        O514   1.372       .  S
O512        H516   0.992       .  S
O514        H515   0.992       .  S
C517        C518   1.405       .  A
C517        C522   1.411       .  A
C518       C1047   1.393   1_455  A
C518        H523   1.083       .  S
C519       C1046   1.393       .  A
C519        C520   1.411       .  A
C519        O524   1.373       .  S
C520        C521   1.406       .  A
C521       C1050   1.390       .  A
C521        H525   1.083       .  S
C522       C1049   1.390   1_455  A
C522        O526   1.372       .  S
O524        H528   0.992       .  S
O526        H527   0.992       .  S
O529        C539   1.271       .  A
O529        V933   1.902   1_554  S
O530        C540   1.271       .  A
O530        V537   1.901       .  S
O531        C541   1.261       .  A
O531        V669   1.906   1_554  S
O532        C542   1.261       .  A
O532        V801   1.905       .  S
O533        C542   1.270       .  A
O533        V670   1.900       .  S
O534        C541   1.270       .  A
O534        V802   1.900   1_554  S
O535        C540   1.261       .  A
O535        V934   1.906       .  S
O536        C539   1.261       .  A
O536        V538   1.906   1_554  S
V537        O925   1.902   1_545  S
V537        O663   1.906       .  S
V537        O796   1.905   1_545  S
V537        V934   2.085       .  T
V538        O665   1.900       .  S
V538        O798   1.900   1_556  S
V538        O931   1.906       .  S
V538        V933   2.085       .  T
C539        C588   1.488       .  S
C540        C554   1.488       .  S
C541        C579   1.487       .  S
C542        C545   1.486       .  S
C543        C649   1.481       .  S
C543        C544   1.396       .  A
C543        C548   1.395       .  A
C544        C545   1.399       .  A
C544        H549   1.083       .  S
C545        C546   1.418       .  A
C546        C547   1.418       .  A
C546        H550   1.083       .  S
C547        C605   1.485       .  S
C547        C548   1.399       .  A
C548        H551   1.082       .  S
C552        C652   1.483       .  S
C552        C553   1.397       .  A
C552        C557   1.396       .  A
C553        C554   1.399       .  A
C553        H558   1.082       .  S
C554        C555   1.419       .  A
C555        C556   1.419       .  A
C555        H559   1.083       .  S
C556        C603   1.487       .  S
C556        C557   1.400       .  A
C557        H560   1.081       .  S
O561        C571   1.270       .  A
O562        C572   1.271       .  A
O562        V569   1.902       .  S
O563        C573   1.262       .  A
O563        V569   1.908       .  S
O564        C574   1.262       .  A
O565        C574   1.271       .  A
O565        V570   1.902       .  S
O566        C573   1.270       .  A
O567        C572   1.262       .  A
O568        C571   1.262       .  A
O568        V570   1.908       .  S
C571        C577   1.489       .  S
C572        C618   1.490       .  S
C573        C586   1.489       .  S
C574        C609   1.490       .  S
C575        C637   1.486       .  S
C575        C576   1.399       .  A
C575        C580   1.397       .  A
C576        C577   1.402       .  A
C576        H581   1.082       .  S
C577        C578   1.419       .  A
C578        C579   1.418       .  A
C578        H582   1.083       .  S
C579        C580   1.399       .  A
C580        H583   1.082       .  S
C584        C640   1.484       .  S
C584        C585   1.397       .  A
C584        C589   1.397       .  A
C585        C586   1.401       .  A
C585        H590   1.081       .  S
C586        C587   1.419       .  A
C587        C588   1.419       .  A
C587        H591   1.083       .  S
C588        C589   1.399       .  A
C589        H592   1.083       .  S
O593        C603   1.271       .  A
O593        V601   1.902       .  S
O594        C604   1.271       .  A
O594        V601   1.902       .  S
O595        C605   1.261       .  A
O595        V601   1.905       .  S
O596        C606   1.261       .  A
O596        V601   1.906       .  S
O597        C606   1.271       .  A
O597        V602   1.900       .  S
O598        C605   1.270       .  A
O598        V602   1.900       .  S
O599        C604   1.261       .  A
O599        V602   1.907       .  S
O600        C603   1.261       .  A
O600        V602   1.906       .  S
V601        V602   2.085       .  T
C604        C620   1.489       .  S
C606        C611   1.488       .  S
C607        C625   1.481       .  S
C607        C608   1.396       .  A
C607        C612   1.395       .  A
C608        C609   1.400       .  A
C608        H613   1.082       .  S
C609        C610   1.421       .  A
C610        C611   1.421       .  A
C610        H614   1.083       .  S
C611        C612   1.399       .  A
C612        H615   1.083       .  S
C616        C628   1.484       .  S
C616        C617   1.395       .  A
C616        C621   1.396       .  A
C617        C618   1.400       .  A
C617        H622   1.081       .  S
C618        C619   1.421       .  A
C619        C620   1.421       .  A
C619        H623   1.083       .  S
C620        C621   1.400       .  A
C621        H624   1.082       .  S
C625        C626   1.405       .  A
C625        C630   1.410       .  A
C626        C891   1.394   1_545  A
C626        H631   1.083       .  S
C627        C890   1.394       .  A
C627        C628   1.412       .  A
C627        O632   1.374       .  S
C628        C629   1.406       .  A
C629        C894   1.391       .  A
C629        H633   1.082       .  S
C630        C893   1.391   1_545  A
C630        O634   1.372       .  S
O632        H636   0.992       .  S
O634        H635   0.992       .  S
C637        C638   1.407       .  A
C637        C642   1.411       .  A
C638        C639   1.394       .  A
C638        H643   1.082       .  S
C639        C640   1.410       .  A
C639        O644   1.374       .  S
C640        C641   1.406       .  A
C641        C642   1.392       .  A
C641        H645   1.083       .  S
C642        O646   1.372       .  S
O644        H648   0.992       .  S
O646        H647   0.992       .  S
C649        C650   1.405       .  A
C649        C654   1.411       .  A
C650        H655   1.083       .  S
C651        C652   1.411       .  A
C651        O656   1.373       .  S
C652        C653   1.406       .  A
C653        H657   1.083       .  S
C654        O658   1.372       .  S
O656        H660   0.992       .  S
O658        H659   0.992       .  S
O661        C671   1.271       .  A
O661        V801   1.902       .  S
O662        C672   1.271       .  A
O662        V669   1.901       .  S
O663        C673   1.261       .  A
O664        C674   1.261       .  A
O664        V933   1.905       .  S
O665        C674   1.270       .  A
O666        C673   1.270       .  A
O666        V934   1.900       .  S
O667        C672   1.261       .  A
O667        V802   1.906       .  S
O668        C671   1.261       .  A
O668        V670   1.906       .  S
V669        O793   1.902   1_546  S
V669        O928   1.905   1_545  S
V669        V802   2.085       .  T
V670        O930   1.900       .  S
V670        O799   1.906       .  S
V670        V801   2.085       .  T
C671        C720   1.488       .  S
C672        C686   1.488       .  S
C673        C711   1.487       .  S
C674        C677   1.486       .  S
C675        C781   1.481       .  S
C675        C676   1.396       .  A
C675        C680   1.395       .  A
C676        C677   1.399       .  A
C676        H681   1.083       .  S
C677        C678   1.418       .  A
C678        C679   1.418       .  A
C678        H682   1.083       .  S
C679        C737   1.485       .  S
C679        C680   1.399       .  A
C680        H683   1.082       .  S
C684        C784   1.483       .  S
C684        C685   1.397       .  A
C684        C689   1.396       .  A
C685        C686   1.399       .  A
C685        H690   1.082       .  S
C686        C687   1.419       .  A
C687        C688   1.419       .  A
C687        H691   1.083       .  S
C688        C735   1.487       .  S
C688        C689   1.400       .  A
C689        H692   1.081       .  S
O693        C703   1.270       .  A
O694        C704   1.271       .  A
O694        V701   1.902       .  S
O695        C705   1.262       .  A
O695        V701   1.908       .  S
O696        C706   1.262       .  A
O697        C706   1.271       .  A
O697        V702   1.902       .  S
O698        C705   1.270       .  A
O699        C704   1.262       .  A
O700        C703   1.262       .  A
O700        V702   1.908       .  S
C703        C709   1.489       .  S
C704        C750   1.490       .  S
C705        C718   1.489       .  S
C706        C741   1.490       .  S
C707        C769   1.486       .  S
C707        C708   1.399       .  A
C707        C712   1.397       .  A
C708        C709   1.402       .  A
C708        H713   1.082       .  S
C709        C710   1.419       .  A
C710        C711   1.418       .  A
C710        H714   1.083       .  S
C711        C712   1.399       .  A
C712        H715   1.082       .  S
C716        C772   1.484       .  S
C716        C717   1.397       .  A
C716        C721   1.397       .  A
C717        C718   1.401       .  A
C717        H722   1.081       .  S
C718        C719   1.419       .  A
C719        C720   1.419       .  A
C719        H723   1.083       .  S
C720        C721   1.399       .  A
C721        H724   1.083       .  S
O725        C735   1.271       .  A
O725        V733   1.902       .  S
O726        C736   1.271       .  A
O726        V733   1.902       .  S
O727        C737   1.261       .  A
O727        V733   1.905       .  S
O728        C738   1.261       .  A
O728        V733   1.906       .  S
O729        C738   1.271       .  A
O729        V734   1.900       .  S
O730        C737   1.270       .  A
O730        V734   1.900       .  S
O731        C736   1.261       .  A
O731        V734   1.907       .  S
O732        C735   1.261       .  A
O732        V734   1.906       .  S
V733        V734   2.085       .  T
C736        C752   1.489       .  S
C738        C743   1.488       .  S
C739        C757   1.481       .  S
C739        C740   1.396       .  A
C739        C744   1.395       .  A
C740        C741   1.400       .  A
C740        H745   1.082       .  S
C741        C742   1.421       .  A
C742        C743   1.421       .  A
C742        H746   1.083       .  S
C743        C744   1.399       .  A
C744        H747   1.083       .  S
C748        C760   1.484       .  S
C748        C749   1.395       .  A
C748        C753   1.396       .  A
C749        C750   1.400       .  A
C749        H754   1.081       .  S
C750        C751   1.421       .  A
C751        C752   1.421       .  A
C751        H755   1.083       .  S
C752        C753   1.400       .  A
C753        H756   1.082       .  S
C757        C758   1.405       .  A
C757        C762   1.410       .  A
C758       C1023   1.394   1_545  A
C758        H763   1.083       .  S
C759       C1022   1.394       .  A
C759        C760   1.412       .  A
C759        O764   1.374       .  S
C760        C761   1.406       .  A
C761       C1026   1.391       .  A
C761        H765   1.082       .  S
C762       C1025   1.391   1_545  A
C762        O766   1.372       .  S
O764        H768   0.992       .  S
O766        H767   0.992       .  S
C769        C770   1.407       .  A
C769        C774   1.411       .  A
C770        C771   1.394       .  A
C770        H775   1.082       .  S
C771        C772   1.410       .  A
C771        O776   1.374       .  S
C772        C773   1.406       .  A
C773        C774   1.392       .  A
C773        H777   1.083       .  S
C774        O778   1.372       .  S
O776        H780   0.992       .  S
O778        H779   0.992       .  S
C781        C782   1.405       .  A
C781        C786   1.411       .  A
C782        H787   1.083       .  S
C783        C784   1.411       .  A
C783        O788   1.373       .  S
C784        C785   1.406       .  A
C785        H789   1.083       .  S
C786        O790   1.372       .  S
O788        H792   0.992       .  S
O790        H791   0.992       .  S
O793        C803   1.271       .  A
O794        C804   1.271       .  A
O794        V801   1.901       .  S
O795        C805   1.261       .  A
O795        V933   1.906   1_554  S
O796        C806   1.261       .  A
O797        C806   1.270       .  A
O797        V934   1.900   1_565  S
O798        C805   1.270       .  A
O799        C804   1.261       .  A
O800        C803   1.261       .  A
O800        V802   1.906   1_564  S
V801        O927   1.906       .  S
V802        O929   1.900   1_545  S
C803        C852   1.488       .  S
C804        C818   1.488       .  S
C805        C843   1.487       .  S
C806        C809   1.486       .  S
C807        C913   1.481       .  S
C807        C808   1.396       .  A
C807        C812   1.395       .  A
C808        C809   1.399       .  A
C808        H813   1.083       .  S
C809        C810   1.418       .  A
C810        C811   1.418       .  A
C810        H814   1.083       .  S
C811        C869   1.485       .  S
C811        C812   1.399       .  A
C812        H815   1.082       .  S
C816        C916   1.483       .  S
C816        C817   1.397       .  A
C816        C821   1.396       .  A
C817        C818   1.399       .  A
C817        H822   1.082       .  S
C818        C819   1.419       .  A
C819        C820   1.419       .  A
C819        H823   1.083       .  S
C820        C867   1.487       .  S
C820        C821   1.400       .  A
C821        H824   1.081       .  S
O825        C835   1.270       .  A
O826        C836   1.271       .  A
O826        V833   1.902       .  S
O827        C837   1.262       .  A
O827        V833   1.908       .  S
O828        C838   1.262       .  A
O829        C838   1.271       .  A
O829        V834   1.902       .  S
O830        C837   1.270       .  A
O831        C836   1.262       .  A
O832        C835   1.262       .  A
O832        V834   1.908       .  S
C835        C841   1.489       .  S
C836        C882   1.490       .  S
C837        C850   1.489       .  S
C838        C873   1.490       .  S
C839        C901   1.486       .  S
C839        C840   1.399       .  A
C839        C844   1.397       .  A
C840        C841   1.402       .  A
C840        H845   1.082       .  S
C841        C842   1.419       .  A
C842        C843   1.418       .  A
C842        H846   1.083       .  S
C843        C844   1.399       .  A
C844        H847   1.082       .  S
C848        C904   1.484       .  S
C848        C849   1.397       .  A
C848        C853   1.397       .  A
C849        C850   1.401       .  A
C849        H854   1.081       .  S
C850        C851   1.419       .  A
C851        C852   1.419       .  A
C851        H855   1.083       .  S
C852        C853   1.399       .  A
C853        H856   1.083       .  S
O857        C867   1.271       .  A
O857        V865   1.902       .  S
O858        C868   1.271       .  A
O858        V865   1.902       .  S
O859        C869   1.261       .  A
O859        V865   1.905       .  S
O860        C870   1.261       .  A
O860        V865   1.906       .  S
O861        C870   1.271       .  A
O861        V866   1.900       .  S
O862        C869   1.270       .  A
O862        V866   1.900       .  S
O863        C868   1.261       .  A
O863        V866   1.907       .  S
O864        C867   1.261       .  A
O864        V866   1.906       .  S
V865        V866   2.085       .  T
C868        C884   1.489       .  S
C870        C875   1.488       .  S
C871        C889   1.481       .  S
C871        C872   1.396       .  A
C871        C876   1.395       .  A
C872        C873   1.400       .  A
C872        H877   1.082       .  S
C873        C874   1.421       .  A
C874        C875   1.421       .  A
C874        H878   1.083       .  S
C875        C876   1.399       .  A
C876        H879   1.083       .  S
C880        C892   1.484       .  S
C880        C881   1.395       .  A
C880        C885   1.396       .  A
C881        C882   1.400       .  A
C881        H886   1.081       .  S
C882        C883   1.421       .  A
C883        C884   1.421       .  A
C883        H887   1.083       .  S
C884        C885   1.400       .  A
C885        H888   1.082       .  S
C889        C890   1.405       .  A
C889        C894   1.410       .  A
C890        H895   1.083       .  S
C891        C892   1.412       .  A
C891        O896   1.374       .  S
C892        C893   1.406       .  A
C893        H897   1.082       .  S
C894        O898   1.372       .  S
O896        H900   0.992       .  S
O898        H899   0.992       .  S
C901        C902   1.407       .  A
C901        C906   1.411       .  A
C902        C903   1.394       .  A
C902        H907   1.082       .  S
C903        C904   1.410       .  A
C903        O908   1.374       .  S
C904        C905   1.406       .  A
C905        C906   1.392       .  A
C905        H909   1.083       .  S
C906        O910   1.372       .  S
O908        H912   0.992       .  S
O910        H911   0.992       .  S
C913        C914   1.405       .  A
C913        C918   1.411       .  A
C914        H919   1.083       .  S
C915        C916   1.411       .  A
C915        O920   1.373       .  S
C916        C917   1.406       .  A
C917        H921   1.083       .  S
C918        O922   1.372       .  S
O920        H924   0.992       .  S
O922        H923   0.992       .  S
O925        C935   1.271       .  A
O926        C936   1.271       .  A
O926        V933   1.901       .  S
O927        C937   1.261       .  A
O928        C938   1.261       .  A
O929        C938   1.270       .  A
O930        C937   1.270       .  A
O931        C936   1.261       .  A
O932        C935   1.261       .  A
O932        V934   1.906   1_565  S
C935        C984   1.488       .  S
C936        C950   1.488       .  S
C937        C975   1.487       .  S
C938        C941   1.486       .  S
C939       C1045   1.481       .  S
C939        C940   1.396       .  A
C939        C944   1.395       .  A
C940        C941   1.399       .  A
C940        H945   1.083       .  S
C941        C942   1.418       .  A
C942        C943   1.418       .  A
C942        H946   1.083       .  S
C943       C1001   1.485       .  S
C943        C944   1.399       .  A
C944        H947   1.082       .  S
C948       C1048   1.483       .  S
C948        C949   1.397       .  A
C948        C953   1.396       .  A
C949        C950   1.399       .  A
C949        H954   1.082       .  S
C950        C951   1.419       .  A
C951        C952   1.419       .  A
C951        H955   1.083       .  S
C952        C999   1.487       .  S
C952        C953   1.400       .  A
C953        H956   1.081       .  S
O957        C967   1.270       .  A
O958        C968   1.271       .  A
O958        V965   1.902       .  S
O959        C969   1.262       .  A
O959        V965   1.908       .  S
O960        C970   1.262       .  A
O961        C970   1.271       .  A
O961        V966   1.902       .  S
O962        C969   1.270       .  A
O963        C968   1.262       .  A
O964        C967   1.262       .  A
O964        V966   1.908       .  S
C967        C973   1.489       .  S
C968       C1014   1.490       .  S
C969        C982   1.489       .  S
C970       C1005   1.490       .  S
C971       C1033   1.486       .  S
C971        C972   1.399       .  A
C971        C976   1.397       .  A
C972        C973   1.402       .  A
C972        H977   1.082       .  S
C973        C974   1.419       .  A
C974        C975   1.418       .  A
C974        H978   1.083       .  S
C975        C976   1.399       .  A
C976        H979   1.082       .  S
C980       C1036   1.484       .  S
C980        C981   1.397       .  A
C980        C985   1.397       .  A
C981        C982   1.401       .  A
C981        H986   1.081       .  S
C982        C983   1.419       .  A
C983        C984   1.419       .  A
C983        H987   1.083       .  S
C984        C985   1.399       .  A
C985        H988   1.083       .  S
O989        C999   1.271       .  A
O989        V997   1.902       .  S
O990       C1000   1.271       .  A
O990        V997   1.902       .  S
O991       C1001   1.261       .  A
O991        V997   1.905       .  S
O992       C1002   1.261       .  A
O992        V997   1.906       .  S
O993       C1002   1.271       .  A
O993        V998   1.900       .  S
O994       C1001   1.270       .  A
O994        V998   1.900       .  S
O995       C1000   1.261       .  A
O995        V998   1.907       .  S
O996        C999   1.261       .  A
O996        V998   1.906       .  S
V997        V998   2.085       .  T
C1000      C1016   1.489       .  S
C1002      C1007   1.488       .  S
C1003      C1021   1.481       .  S
C1003      C1004   1.396       .  A
C1003      C1008   1.395       .  A
C1004      C1005   1.400       .  A
C1004      H1009   1.082       .  S
C1005      C1006   1.421       .  A
C1006      C1007   1.421       .  A
C1006      H1010   1.083       .  S
C1007      C1008   1.399       .  A
C1008      H1011   1.083       .  S
C1012      C1024   1.484       .  S
C1012      C1013   1.395       .  A
C1012      C1017   1.396       .  A
C1013      C1014   1.400       .  A
C1013      H1018   1.081       .  S
C1014      C1015   1.421       .  A
C1015      C1016   1.421       .  A
C1015      H1019   1.083       .  S
C1016      C1017   1.400       .  A
C1017      H1020   1.082       .  S
C1021      C1022   1.405       .  A
C1021      C1026   1.410       .  A
C1022      H1027   1.083       .  S
C1023      C1024   1.412       .  A
C1023      O1028   1.374       .  S
C1024      C1025   1.406       .  A
C1025      H1029   1.082       .  S
C1026      O1030   1.372       .  S
O1028      H1032   0.992       .  S
O1030      H1031   0.991       .  S
C1033      C1034   1.407       .  A
C1033      C1038   1.411       .  A
C1034      C1035   1.394       .  A
C1034      H1039   1.082       .  S
C1035      C1036   1.410       .  A
C1035      O1040   1.374       .  S
C1036      C1037   1.406       .  A
C1037      C1038   1.392       .  A
C1037      H1041   1.083       .  S
C1038      O1042   1.372       .  S
O1040      H1044   0.992       .  S
O1042      H1043   0.992       .  S
C1045      C1046   1.405       .  A
C1045      C1050   1.411       .  A
C1046      H1051   1.083       .  S
C1047      C1048   1.411       .  A
C1047      O1052   1.373       .  S
C1048      C1049   1.406       .  A
C1049      H1053   1.083       .  S
C1050      O1054   1.372       .  S
O1052      H1056   0.992       .  S
O1054      H1055   0.992       .  S
