geometry optimzed in LAMMPS
_audit_creation_date              2020-12-01 
_audit_creation_method            'lammps2cif' 
_symmetry_space_group_name_H-M    'P1' 
_symmetry_Int_Tables_number       1 
_symmetry_cell_setting            triclinic 
loop_ 
_symmetry_equiv_pos_as_xyz 
  x,y,z 
_cell_length_a                    32.91402811 
_cell_length_b                    31.545285059444737 
_cell_length_c                    32.72907115741566 
_cell_angle_alpha                 92.02037660992404 
_cell_angle_beta                  89.14493814220835 
_cell_angle_gamma                 124.23847879932413 
loop_ 
_atom_site_label 
_atom_site_type_symbol 
_atom_site_fract_x 
_atom_site_fract_y 
_atom_site_fract_z 
_atom_site_charge 
O1          O  0.31595263  0.04781612  0.44803521    -0.74600
O2          O  0.27725058  0.46549931  0.04517173    -0.74600
O3          O  0.26960995  0.44487691  0.46457701    -0.74700
O4          O  0.33017496  0.06805473  0.02901467    -0.74700
O5          O  0.26138616  0.06603520  0.03056190    -0.74700
O6          O  0.19774308  0.43652664  0.46697789    -0.74600
O7          O  0.20792166  0.46257030  0.04613756    -0.74600
O8          O  0.24437080  0.04013320  0.45090597    -0.74700
Ni9        Ni  0.30080499  0.00683242  0.49653722     1.25400
Ni10       Ni  0.22534160  0.50115021  0.99859250     1.25400
C11         C  0.28661845  0.05959913  0.43523872     0.87600
C12         C  0.23429196  0.44857150  0.06000448     0.87500
C13         C  0.22351382  0.41813836  0.45799020     0.87500
C14         C  0.30761250  0.08892328  0.03887016     0.87700
C15         C  0.12881153  0.28249946  0.42893422     0.80100
N16         N  0.15093733  0.33341291  0.43742083    -0.78200
C17         C  0.20028986  0.36413992  0.44311284     0.82500
N18         N  0.22781702  0.34439917  0.43490024    -0.78200
C19         C  0.20479304  0.29275135  0.42706023     0.82600
N20         N  0.15572144  0.26256315  0.42877923    -0.79900
C21         C  0.34247647  0.13552873  0.34253525     0.80100
N22         N  0.32971662  0.16921286  0.34673568    -0.78200
C23         C  0.30360052  0.16894360  0.37851922     0.82500
N24         N  0.28682676  0.13127215  0.40634759    -0.78200
C25         C  0.30132724  0.09797421  0.40365679     0.82600
N26         N  0.32970388  0.10084126  0.37194905    -0.79900
O27         O  0.05700572  0.31034445  0.21995405    -0.74600
O28         O  0.47491515  0.27752183  0.12394546    -0.74600
O29         O  0.45604521  0.26711845  0.20432845    -0.74700
O30         O  0.07149425  0.32810720  0.13953033    -0.74700
O31         O  0.06843285  0.25564682  0.13610876    -0.74700
O32         O  0.44163449  0.18992507  0.19300693    -0.74600
O33         O  0.47064661  0.20474932  0.11485518    -0.74600
O34         O  0.04320808  0.23283686  0.21444909    -0.74700
Ni35       Ni  0.01517376  0.29830984  0.17256007     1.25400
Ni36       Ni  0.50554240  0.21780863  0.16469926     1.25400
C37         C  0.06668649  0.27781304  0.23114147     0.87600
C38         C  0.45809912  0.23429285  0.10450234     0.87500
C39         C  0.42616364  0.21849937  0.20448118     0.87500
C40         C  0.09068194  0.30403574  0.12943222     0.87700
C41         C  0.34819211  0.21901279  0.07787115     0.80100
N42         N  0.39713576  0.24213588  0.07771627    -0.78200
C43         C  0.41654333  0.21465937  0.07600694     0.82500
N44         N  0.38684170  0.16378512  0.06500627    -0.78200
C45         C  0.33784567  0.14155852  0.05717615     0.82600
N46         N  0.31791091  0.16848931  0.06653130    -0.79900
C47         C  0.22101742  0.37592595  0.15095773     0.80100
N48         N  0.24145150  0.41086365  0.12117865    -0.78200
C49         C  0.21248224  0.41026833  0.09189096     0.82500
N50         N  0.16271634  0.37394140  0.09224576    -0.78200
C51         C  0.14311667  0.33631007  0.12021227     0.82600
N52         N  0.17244459  0.33872575  0.14938440    -0.79900
O53         O  0.24053218  0.18825564  0.28564430    -0.74600
O54         O  0.19590484  0.22702835  0.38171805    -0.74600
O55         O  0.18574514  0.23104832  0.30096977    -0.74700
O56         O  0.23841704  0.17571064  0.36677055    -0.74700
O57         O  0.31299862  0.24855397  0.36529505    -0.74700
O58         O  0.25376684  0.30944848  0.30880200    -0.74600
O59         O  0.26972951  0.30062786  0.38694605    -0.74600
O60         O  0.30949068  0.26652121  0.28658738    -0.74700
Ni61       Ni  0.21270803  0.20294767  0.33337276     1.25400
Ni62       Ni  0.28927241  0.28428213  0.33674582     1.25400
C63         C  0.28475144  0.22034378  0.27225319     0.87600
C64         C  0.22555565  0.27178523  0.39896968     0.87500
C65         C  0.20735645  0.27938668  0.29910491     0.87500
C66         C  0.28415333  0.20038555  0.37348387     0.87700
C67         C  0.28901457  0.12892352  0.20160701     0.80100
N68         N  0.33781632  0.14887884  0.19754552    -0.78200
C69         C  0.37230729  0.19605058  0.21396273     0.82500
N70         N  0.35650128  0.22258057  0.23631161    -0.78200
C71         C  0.30680792  0.20141880  0.24161761     0.82600
N72         N  0.27475967  0.15544325  0.22368476    -0.79900
C73         C  0.15034465  0.35192006  0.31870941     0.80100
N74         N  0.18211567  0.33724947  0.31855058    -0.78200
C75         C  0.17573375  0.29955962  0.29221690     0.82500
N76         N  0.13622813  0.27664769  0.26510504    -0.78200
C77         C  0.10557563  0.29361935  0.26361351     0.82600
N78         N  0.11341740  0.33052733  0.29070116    -0.79900
C79         C  0.13584295  0.44556633  0.30737182    -0.02200
C80         C  0.18559969  0.47958042  0.29572100     0.06400
C81         C  0.22165418  0.48311822  0.32124958    -0.08100
C82         C  0.20931702  0.44077515  0.34409181     0.03900
C83         C  0.16034714  0.39797924  0.34237583    -0.15400
C84         C  0.12486513  0.40868768  0.33616495    -0.08700
C85         C  0.20123749  0.00320890  0.25471056     0.04800
C86         C  0.18037307  0.02686966  0.23715199    -0.09800
C87         C  0.20239463  0.05709808  0.20306106    -0.00200
C88         C  0.25111992  0.07373675  0.19390229    -0.00300
C89         C  0.26497934  0.04049032  0.20263605    -0.13400
C90         C  0.23952486  0.00428974  0.23274757     0.00100
C91         C  0.18031899  0.08042147  0.18449733     0.39400
C92         C  0.25558737  0.97160246  0.24243357     0.36000
C93         C  0.09538470  0.44196471  0.28704550     0.35800
C94         C  0.24797060  0.43714295  0.35957003     0.36500
N95         N  0.16259058  0.09881802  0.16918197    -0.44300
N96         N  0.26816721  0.94546679  0.25119751    -0.44700
N97         N  0.27905954  0.43398320  0.37150680    -0.42100
N98         N  0.06254510  0.43863247  0.27100765    -0.43500
H99         H  0.08666029  0.37905080  0.34204594     0.12700
H100        H  0.26003497  0.51369518  0.31735740     0.09200
H101        H  0.14963827  0.02529994  0.25096951     0.10200
H102        H  0.29966134  0.04819166  0.19157169     0.16000
C103        C  0.35148114  0.29467531  0.16975702    -0.02200
C104        C  0.30874011  0.29294851  0.16449814     0.06400
C105        C  0.27784470  0.26665099  0.13024476    -0.08100
C106        C  0.28917586  0.24148768  0.10129412     0.03900
C107        C  0.33186815  0.24278421  0.10677207    -0.15400
C108        C  0.36192732  0.26843287  0.14169147    -0.08700
C109        C  0.29775015  0.32321277  0.19102841     0.04800
C110        C  0.32628941  0.37623794  0.18489635    -0.09800
C111        C  0.30257468  0.40075631  0.17896194    -0.00200
C112        C  0.25093409  0.37116233  0.18086295    -0.00300
C113        C  0.22682845  0.32471395  0.20135310    -0.13400
C114        C  0.24952412  0.29923224  0.20520863     0.00100
C115        C  0.33074645  0.45301067  0.16570947     0.39400
C116        C  0.21869289  0.24447571  0.21101381     0.36000
C117        C  0.38558424  0.32411796  0.20292483     0.35800
C118        C  0.25853557  0.21767447  0.06540022     0.36500
N119        N  0.35332377  0.49496629  0.15522630    -0.44300
N120        N  0.19329267  0.20054412  0.21463728    -0.44700
N121        N  0.23416587  0.19892837  0.03646895    -0.42100
N122        N  0.41292152  0.34779033  0.22939906    -0.43500
H123        H  0.39448509  0.26887320  0.14706306     0.12700
H124        H  0.24574532  0.26743655  0.12541964     0.09200
H125        H  0.36462181  0.39555558  0.17642355     0.10200
H126        H  0.18747512  0.30253102  0.20488998     0.16000
C127        C  0.05405355  0.20672181  0.33686008    -0.02200
C128        C  0.01859905  0.21794051  0.33661891     0.06400
C129        C  0.01559097  0.24570081  0.37008561    -0.08100
C130        C  0.04975139  0.26572116  0.40181851     0.03900
C131        C  0.08596440  0.25546043  0.40154662    -0.15400
C132        C  0.08660362  0.22466881  0.36932043    -0.08700
C133        C  0.47928173  0.19462740  0.30572791     0.04800
C134        C  0.44908577  0.14071779  0.30391572    -0.09800
C135        C  0.39850623  0.11601803  0.30727073    -0.00200
C136        C  0.37978195  0.14636215  0.31189124    -0.00300
C137        C  0.40884790  0.19733805  0.29939530    -0.13400
C138        C  0.45898428  0.22179228  0.29537312     0.00100
C139        C  0.36875903  0.06146763  0.31251791     0.39400
C140        C  0.48828085  0.27700149  0.29308487     0.36000
C141        C  0.05883206  0.17818161  0.30376287     0.35800
C142        C  0.04667861  0.29625774  0.43404801     0.36500
N143        N  0.34623075  0.01762387  0.31642036    -0.44300
N144        N  0.51025639  0.32117638  0.29167176    -0.44700
N145        N  0.04424844  0.32092689  0.45970921    -0.42100
N146        N  0.06280150  0.15557563  0.27719042    -0.43500
H147        H  0.11438030  0.21646119  0.36775509     0.12700
H148        H  0.98615728  0.25156944  0.37175477     0.09200
H149        H  0.46417788  0.11839495  0.30876722     0.10200
H150        H  0.39497949  0.22133433  0.30070374     0.16000
O151        O  0.31595247  0.04781587  0.94803515    -0.74600
O152        O  0.27725070  0.46549947  0.54517161    -0.74600
O153        O  0.26960976  0.44487670  0.96457720    -0.74700
O154        O  0.33017504  0.06805487  0.52901484    -0.74700
O155        O  0.26138627  0.06603542  0.53056189    -0.74700
O156        O  0.19774289  0.43652644  0.96697811    -0.74600
O157        O  0.20792176  0.46257042  0.54613742    -0.74600
O158        O  0.24437070  0.04013307  0.95090604    -0.74700
Ni159      Ni  0.30080490  0.00683223  0.99653714     1.25400
Ni160      Ni  0.22534170  0.50115035  0.49859234     1.25400
C161        C  0.28661829  0.05959898  0.93523878     0.87600
C162        C  0.23429207  0.44857168  0.56000442     0.87500
C163        C  0.22351361  0.41813813  0.95799039     0.87500
C164        C  0.30761259  0.08892344  0.53887029     0.87700
C165        C  0.12881139  0.28249934  0.92893414     0.80100
N166        N  0.15093712  0.33341273  0.93742080    -0.78200
C167        C  0.20028970  0.36413975  0.94311293     0.82500
N168        N  0.22781679  0.34439894  0.93490025    -0.78200
C169        C  0.20479291  0.29275124  0.92706021     0.82600
N170        N  0.15572118  0.26256294  0.92877917    -0.79900
C171        C  0.34247633  0.13552849  0.84253524     0.80100
N172        N  0.32971643  0.16921262  0.84673564    -0.78200
C173        C  0.30360039  0.16894340  0.87851921     0.82500
N174        N  0.28682662  0.13127200  0.90634758    -0.78200
C175        C  0.30132718  0.09797405  0.90365681     0.82600
N176        N  0.32970382  0.10084113  0.87194913    -0.79900
O177        O  0.05700577  0.31034455  0.71995409    -0.74600
O178        O  0.47491517  0.27752193  0.62394546    -0.74600
O179        O  0.45604526  0.26711854  0.70432839    -0.74700
O180        O  0.07149440  0.32810746  0.63953040    -0.74700
O181        O  0.06843289  0.25564703  0.63610876    -0.74700
O182        O  0.44163457  0.18992517  0.69300681    -0.74600
O183        O  0.47064677  0.20474951  0.61485508    -0.74600
O184        O  0.04320814  0.23283697  0.71444897    -0.74700
Ni185      Ni  0.01517385  0.29831000  0.67256004     1.25400
Ni186      Ni  0.50554249  0.21780876  0.66469917     1.25400
C187        C  0.06668654  0.27781311  0.73114140     0.87600
C188        C  0.45809922  0.23429305  0.60450231     0.87500
C189        C  0.42616365  0.21849933  0.70448105     0.87500
C190        C  0.09068200  0.30403594  0.62943223     0.87700
C191        C  0.34819219  0.21901292  0.57787119     0.80100
N192        N  0.39713586  0.24213605  0.57771622    -0.78200
C193        C  0.41654341  0.21465946  0.57600693     0.82500
N194        N  0.38684177  0.16378525  0.56500642    -0.78200
C195        C  0.33784570  0.14155860  0.55717633     0.82600
N196        N  0.31791098  0.16848942  0.56653148    -0.79900
C197        C  0.22101752  0.37592632  0.65095790     0.80100
N198        N  0.24145156  0.41086388  0.62117877    -0.78200
C199        C  0.21248239  0.41026857  0.59189100     0.82500
N200        N  0.16271646  0.37394152  0.59224574    -0.78200
C201        C  0.14311678  0.33631026  0.62021230     0.82600
N202        N  0.17244459  0.33872605  0.64938456    -0.79900
O203        O  0.24053211  0.18825555  0.78564433    -0.74600
O204        O  0.19590462  0.22702817  0.88171802    -0.74600
O205        O  0.18574508  0.23104836  0.80096970    -0.74700
O206        O  0.23841690  0.17571047  0.86677048    -0.74700
O207        O  0.31299845  0.24855385  0.86529519    -0.74700
O208        O  0.25376676  0.30944852  0.80880212    -0.74600
O209        O  0.26972927  0.30062773  0.88694606    -0.74600
O210        O  0.30949046  0.26652121  0.78658735    -0.74700
Ni211      Ni  0.21270785  0.20294753  0.83337271     1.25400
Ni212      Ni  0.28927219  0.28428202  0.83674589     1.25400
C213        C  0.28475140  0.22034380  0.77225319     0.87600
C214        C  0.22555534  0.27178497  0.89896967     0.87500
C215        C  0.20735639  0.27938668  0.79910488     0.87500
C216        C  0.28415321  0.20038542  0.87348389     0.87700
C217        C  0.28901456  0.12892342  0.70160704     0.80100
N218        N  0.33781627  0.14887874  0.69754542    -0.78200
C219        C  0.37230730  0.19605061  0.71396265     0.82500
N220        N  0.35650126  0.22258050  0.73631151    -0.78200
C221        C  0.30680785  0.20141871  0.74161761     0.82600
N222        N  0.27475967  0.15544313  0.72368487    -0.79900
C223        C  0.15034459  0.35191992  0.81870936     0.80100
N224        N  0.18211557  0.33724932  0.81855054    -0.78200
C225        C  0.17573372  0.29955956  0.79221687     0.82500
N226        N  0.13622808  0.27664756  0.76510498    -0.78200
C227        C  0.10557562  0.29361924  0.76361345     0.82600
N228        N  0.11341734  0.33052719  0.79070110    -0.79900
C229        C  0.13584283  0.44556610  0.80737189    -0.02200
C230        C  0.18559960  0.47958024  0.79572115     0.06400
C231        C  0.22165408  0.48311804  0.82124975    -0.08100
C232        C  0.20931691  0.44077493  0.84409195     0.03900
C233        C  0.16034703  0.39797902  0.84237585    -0.15400
C234        C  0.12486502  0.40868745  0.83616504    -0.08700
C235        C  0.20123743  0.00320875  0.75471072     0.04800
C236        C  0.18037291  0.02686950  0.73715219    -0.09800
C237        C  0.20239462  0.05709805  0.70306127    -0.00200
C238        C  0.25111986  0.07373663  0.69390247    -0.00300
C239        C  0.26497929  0.04049021  0.70263624    -0.13400
C240        C  0.23952475  0.00428962  0.73274773     0.00100
C241        C  0.18031898  0.08042141  0.68449755     0.39400
C242        C  0.25558732  0.97160233  0.74243371     0.36000
C243        C  0.09538462  0.44196450  0.78704559     0.35800
C244        C  0.24797048  0.43714273  0.85957021     0.36500
N245        N  0.16259067  0.09881814  0.66918217    -0.44300
N246        N  0.26816733  0.94546685  0.75119747    -0.44700
N247        N  0.27905944  0.43398300  0.87150700    -0.42100
N248        N  0.06254502  0.43863227  0.77100759    -0.43500
H249        H  0.08666026  0.37905067  0.84204607     0.12700
H250        H  0.26003486  0.51369499  0.81735762     0.09200
H251        H  0.14963853  0.02529972  0.75096943     0.10200
H252        H  0.29966124  0.04819151  0.69157188     0.16000
C253        C  0.35148125  0.29467545  0.66975698    -0.02200
C254        C  0.30874029  0.29294880  0.66449805     0.06400
C255        C  0.27784492  0.26665140  0.63024465    -0.08100
C256        C  0.28917593  0.24148787  0.60129414     0.03900
C257        C  0.33186823  0.24278440  0.60677204    -0.15400
C258        C  0.36192740  0.26843305  0.64169139    -0.08700
C259        C  0.29775033  0.32321303  0.69102834     0.04800
C260        C  0.32628949  0.37623815  0.68489633    -0.09800
C261        C  0.30257481  0.40075655  0.67896201    -0.00200
C262        C  0.25093416  0.37116254  0.68086307    -0.00300
C263        C  0.22682858  0.32471412  0.70135306    -0.13400
C264        C  0.24952423  0.29923240  0.70520852     0.00100
C265        C  0.33074650  0.45301087  0.66570950     0.39400
C266        C  0.21869305  0.24447592  0.71101375     0.36000
C267        C  0.38558425  0.32411793  0.70292475     0.35800
C268        C  0.25853557  0.21767470  0.56540015     0.36500
N269        N  0.35332363  0.49496651  0.65522644    -0.44300
N270        N  0.19329280  0.20054433  0.71463744    -0.44700
N271        N  0.23416615  0.19892891  0.53646886    -0.42100
N272        N  0.41292161  0.34779045  0.72939898    -0.43500
H273        H  0.39448526  0.26887331  0.64706300     0.12700
H274        H  0.24574570  0.26743719  0.62541949     0.09200
H275        H  0.36462227  0.39555600  0.67642342     0.10200
H276        H  0.18747505  0.30253102  0.70488995     0.16000
C277        C  0.05405356  0.20672187  0.83685993    -0.02200
C278        C  0.01859886  0.21794036  0.83661884     0.06400
C279        C  0.01559080  0.24570062  0.87008554    -0.08100
C280        C  0.04975121  0.26572103  0.90181842     0.03900
C281        C  0.08596424  0.25546029  0.90154653    -0.15400
C282        C  0.08660334  0.22466890  0.86932030    -0.08700
C283        C  0.47928161  0.19462726  0.80572784     0.04800
C284        C  0.44908554  0.14071778  0.80391558    -0.09800
C285        C  0.39850611  0.11601788  0.80727067    -0.00200
C286        C  0.37978178  0.14636200  0.81189122    -0.00300
C287        C  0.40884784  0.19733787  0.79939536    -0.13400
C288        C  0.45898412  0.22179219  0.79537309     0.00100
C289        C  0.36875892  0.06146747  0.81251804     0.39400
C290        C  0.48828076  0.27700150  0.79308479     0.36000
C291        C  0.05883211  0.17818175  0.80376274     0.35800
C292        C  0.04667842  0.29625747  0.93404798     0.36500
N293        N  0.34623073  0.01762378  0.81642056    -0.44300
N294        N  0.51025631  0.32117629  0.79167166    -0.44700
N295        N  0.04424816  0.32092636  0.95970939    -0.42100
N296        N  0.06280161  0.15557580  0.77719031    -0.43500
H297        H  0.11438126  0.21646103  0.86775494     0.12700
H298        H  0.98615690  0.25156925  0.87175473     0.09200
H299        H  0.46417819  0.11839429  0.80876721     0.10200
H300        H  0.39497907  0.22133465  0.80070387     0.16000
O301        O  0.31595258  0.54781607  0.44803508    -0.74600
O302        O  0.27725064  0.96549934  0.04517161    -0.74600
O303        O  0.26960993  0.94487691  0.46457716    -0.74700
O304        O  0.33017494  0.56805475  0.02901476    -0.74700
O305        O  0.26138614  0.56603523  0.03056190    -0.74700
O306        O  0.19774307  0.93652669  0.46697799    -0.74600
O307        O  0.20792167  0.96257025  0.04613739    -0.74600
O308        O  0.24437080  0.54013324  0.45090589    -0.74700
Ni309      Ni  0.30080498  0.50683242  0.49653711     1.25400
Ni310      Ni  0.22534163  0.00115020  0.99859245     1.25400
C311        C  0.28661848  0.55959915  0.43523864     0.87600
C312        C  0.23429203  0.94857151  0.06000437     0.87500
C313        C  0.22351379  0.91813836  0.45799031     0.87500
C314        C  0.30761248  0.58892333  0.03887019     0.87700
C315        C  0.12881149  0.78249947  0.42893434     0.80100
N316        N  0.15093728  0.83341288  0.43742092    -0.78200
C317        C  0.20028983  0.86413994  0.44311297     0.82500
N318        N  0.22781698  0.84439915  0.43490035    -0.78200
C319        C  0.20479300  0.79275136  0.42706034     0.82600
N320        N  0.15572142  0.76256313  0.42877935    -0.79900
C321        C  0.34247649  0.63552878  0.34253527     0.80100
N322        N  0.32971660  0.66921284  0.34673566    -0.78200
C323        C  0.30360051  0.66894362  0.37851922     0.82500
N324        N  0.28682676  0.63127214  0.40634756    -0.78200
C325        C  0.30132727  0.59797426  0.40365677     0.82600
N326        N  0.32970401  0.60084135  0.37194907    -0.79900
O327        O  0.05700571  0.81034444  0.21995405    -0.74600
O328        O  0.47491512  0.77752181  0.12394545    -0.74600
O329        O  0.45604520  0.76711847  0.20432845    -0.74700
O330        O  0.07149434  0.82810732  0.13953032    -0.74700
O331        O  0.06843296  0.75564696  0.13610870    -0.74700
O332        O  0.44163448  0.68992509  0.19300693    -0.74600
O333        O  0.47064660  0.70474931  0.11485518    -0.74600
O334        O  0.04320805  0.73283685  0.21444898    -0.74700
Ni335      Ni  0.01517378  0.79830988  0.17256005     1.25400
Ni336      Ni  0.50554239  0.71780865  0.16469927     1.25400
C337        C  0.06668644  0.77781303  0.23114146     0.87600
C338        C  0.45809910  0.73429288  0.10450236     0.87500
C339        C  0.42616363  0.71849939  0.20448118     0.87500
C340        C  0.09068204  0.80403583  0.12943222     0.87700
C341        C  0.34819207  0.71901276  0.07787120     0.80100
N342        N  0.39713573  0.74213589  0.07771628    -0.78200
C343        C  0.41654327  0.71465928  0.07600695     0.82500
N344        N  0.38684168  0.66378514  0.06500628    -0.78200
C345        C  0.33784562  0.64155848  0.05717620     0.82600
N346        N  0.31791087  0.66848929  0.06653148    -0.79900
C347        C  0.22101755  0.87592623  0.15095778     0.80100
N348        N  0.24145158  0.91086381  0.12117868    -0.78200
C349        C  0.21248231  0.91026849  0.09189092     0.82500
N350        N  0.16271643  0.87394147  0.09224577    -0.78200
C351        C  0.14311682  0.83631019  0.12021224     0.82600
N352        N  0.17244469  0.83872588  0.14938442    -0.79900
O353        O  0.24053216  0.68825567  0.28564430    -0.74600
O354        O  0.19590478  0.72702835  0.38171809    -0.74600
O355        O  0.18574514  0.73104836  0.30096976    -0.74700
O356        O  0.23841703  0.67571066  0.36677055    -0.74700
O357        O  0.31299860  0.74855399  0.36529506    -0.74700
O358        O  0.25376680  0.80944852  0.30880213    -0.74600
O359        O  0.26972940  0.80062792  0.38694605    -0.74600
O360        O  0.30949066  0.76652124  0.28658740    -0.74700
Ni361      Ni  0.21270801  0.70294769  0.33337277     1.25400
Ni362      Ni  0.28927238  0.78428217  0.33674586     1.25400
C363        C  0.28475143  0.72034381  0.27225319     0.87600
C364        C  0.22555558  0.77178525  0.39896971     0.87500
C365        C  0.20735643  0.77938672  0.29910496     0.87500
C366        C  0.28415332  0.70038556  0.37348387     0.87700
C367        C  0.28901456  0.62892354  0.20160701     0.80100
N368        N  0.33781631  0.64887887  0.19754553    -0.78200
C369        C  0.37230728  0.69605060  0.21396274     0.82500
N370        N  0.35650127  0.72258059  0.23631162    -0.78200
C371        C  0.30680791  0.70141883  0.24161761     0.82600
N372        N  0.27475966  0.65544327  0.22368476    -0.79900
C373        C  0.15034460  0.85192002  0.31870938     0.80100
N374        N  0.18211564  0.83724949  0.31855057    -0.78200
C375        C  0.17573374  0.79955963  0.29221689     0.82500
N376        N  0.13622809  0.77664767  0.26510507    -0.78200
C377        C  0.10557554  0.79361922  0.26361352     0.82600
N378        N  0.11341734  0.83052731  0.29070117    -0.79900
C379        C  0.13584294  0.94556635  0.30737183    -0.02200
C380        C  0.18559968  0.97958041  0.29572102     0.06400
C381        C  0.22165418  0.98311818  0.32124960    -0.08100
C382        C  0.20931695  0.94077508  0.34409184     0.03900
C383        C  0.16034708  0.89797921  0.34237583    -0.15400
C384        C  0.12486508  0.90868767  0.33616495    -0.08700
C385        C  0.20123748  0.50320891  0.25471057     0.04800
C386        C  0.18037307  0.52686968  0.23715199    -0.09800
C387        C  0.20239462  0.55709807  0.20306107    -0.00200
C388        C  0.25111992  0.57373678  0.19390229    -0.00300
C389        C  0.26497925  0.54049032  0.20263605    -0.13400
C390        C  0.23952484  0.50428980  0.23274755     0.00100
C391        C  0.18031897  0.58042150  0.18449739     0.39400
C392        C  0.25558741  0.47160251  0.24243351     0.36000
C393        C  0.09538469  0.94196473  0.28704550     0.35800
C394        C  0.24797054  0.93714292  0.35957019     0.36500
N395        N  0.16259054  0.59881808  0.16918222    -0.44300
N396        N  0.26816743  0.44546704  0.25119726    -0.44700
N397        N  0.27905952  0.93398323  0.37150686    -0.42100
N398        N  0.06254509  0.93863250  0.27100765    -0.43500
H399        H  0.08666028  0.87905085  0.34204593     0.12700
H400        H  0.26003482  0.01369503  0.31735748     0.09200
H401        H  0.14963824  0.52529994  0.25096953     0.10200
H402        H  0.29966157  0.54819169  0.19157151     0.16000
C403        C  0.35148113  0.79467535  0.16975703    -0.02200
C404        C  0.30874010  0.79294856  0.16449814     0.06400
C405        C  0.27784472  0.76665106  0.13024476    -0.08100
C406        C  0.28917585  0.74148771  0.10129412     0.03900
C407        C  0.33186815  0.74278427  0.10677209    -0.15400
C408        C  0.36192731  0.76843291  0.14169147    -0.08700
C409        C  0.29775023  0.82321293  0.19102833     0.04800
C410        C  0.32628922  0.87623796  0.18489620    -0.09800
C411        C  0.30257479  0.90075653  0.17896193    -0.00200
C412        C  0.25093418  0.87116261  0.18086308    -0.00300
C413        C  0.22682844  0.82471409  0.20135315    -0.13400
C414        C  0.24952418  0.79923237  0.20520861     0.00100
C415        C  0.33074657  0.95301094  0.16570932     0.39400
C416        C  0.21869286  0.74447581  0.21101379     0.36000
C417        C  0.38558423  0.82411798  0.20292483     0.35800
C418        C  0.25853556  0.71767450  0.06540023     0.36500
N419        N  0.35332384  0.99496646  0.15522622    -0.44300
N420        N  0.19329242  0.70054420  0.21463728    -0.44700
N421        N  0.23416586  0.69892840  0.03646895    -0.42100
N422        N  0.41292151  0.84779036  0.22939907    -0.43500
H423        H  0.39448508  0.76887323  0.14706306     0.12700
H424        H  0.24574534  0.76743667  0.12541960     0.09200
H425        H  0.36462296  0.89555623  0.17642299     0.10200
H426        H  0.18747577  0.80253148  0.20488994     0.16000
C427        C  0.05405357  0.70672179  0.33686014    -0.02200
C428        C  0.01859905  0.71794049  0.33661893     0.06400
C429        C  0.01559101  0.74570082  0.37008560    -0.08100
C430        C  0.04975138  0.76572114  0.40181850     0.03900
C431        C  0.08596436  0.75546034  0.40154672    -0.15400
C432        C  0.08660359  0.72466881  0.36932050    -0.08700
C433        C  0.47928177  0.69462753  0.30572791     0.04800
C434        C  0.44908580  0.64071790  0.30391570    -0.09800
C435        C  0.39850627  0.61601815  0.30727072    -0.00200
C436        C  0.37978200  0.64636227  0.31189128    -0.00300
C437        C  0.40884802  0.69733817  0.29939546    -0.13400
C438        C  0.45898432  0.72179243  0.29537318     0.00100
C439        C  0.36875904  0.56146769  0.31251790     0.39400
C440        C  0.48828096  0.77700173  0.29308489     0.36000
C441        C  0.05883209  0.67818162  0.30376291     0.35800
C442        C  0.04667855  0.79625768  0.43404802     0.36500
N443        N  0.34623079  0.51762398  0.31642034    -0.44300
N444        N  0.51025644  0.82117652  0.29167176    -0.44700
N445        N  0.04424824  0.82092663  0.45970926    -0.42100
N446        N  0.06280148  0.65557567  0.27719043    -0.43500
H447        H  0.11438058  0.71646120  0.36775515     0.12700
H448        H  0.98615725  0.75156950  0.37175472     0.09200
H449        H  0.46417788  0.61839510  0.30876719     0.10200
H450        H  0.39497933  0.72133484  0.30070396     0.16000
O451        O  0.31595248  0.54781589  0.94803525    -0.74600
O452        O  0.27725067  0.96549945  0.54517165    -0.74600
O453        O  0.26960982  0.94487668  0.96457711    -0.74700
O454        O  0.33017502  0.56805490  0.52901465    -0.74700
O455        O  0.26138617  0.56603529  0.53056186    -0.74700
O456        O  0.19774297  0.93652646  0.96697807    -0.74600
O457        O  0.20792177  0.96257047  0.54613752    -0.74600
O458        O  0.24437069  0.54013305  0.95090606    -0.74700
Ni459      Ni  0.30080486  0.50683223  0.99653726     1.25400
Ni460      Ni  0.22534173  0.00115040  0.49859244     1.25400
C461        C  0.28661837  0.55959900  0.93523881     0.87600
C462        C  0.23429207  0.94857169  0.56000446     0.87500
C463        C  0.22351363  0.91813813  0.95799036     0.87500
C464        C  0.30761251  0.58892338  0.53887021     0.87700
C465        C  0.12881137  0.78249930  0.92893411     0.80100
N466        N  0.15093711  0.83341275  0.93742079    -0.78200
C467        C  0.20028970  0.86413971  0.94311292     0.82500
N468        N  0.22781676  0.84439893  0.93490026    -0.78200
C469        C  0.20479283  0.79275114  0.92706021     0.82600
N470        N  0.15572117  0.76256294  0.92877918    -0.79900
C471        C  0.34247639  0.63552855  0.84253533     0.80100
N472        N  0.32971647  0.66921264  0.84673566    -0.78200
C473        C  0.30360036  0.66894339  0.87851925     0.82500
N474        N  0.28682663  0.63127199  0.90634759    -0.78200
C475        C  0.30132715  0.59797407  0.90365688     0.82600
N476        N  0.32970388  0.60084116  0.87194915    -0.79900
O477        O  0.05700573  0.81034448  0.71995407    -0.74600
O478        O  0.47491517  0.77752196  0.62394544    -0.74600
O479        O  0.45604525  0.76711858  0.70432837    -0.74700
O480        O  0.07149435  0.82810731  0.63953037    -0.74700
O481        O  0.06843300  0.75564696  0.63610883    -0.74700
O482        O  0.44163455  0.68992521  0.69300682    -0.74600
O483        O  0.47064677  0.70474954  0.61485509    -0.74600
O484        O  0.04320803  0.73283686  0.71444900    -0.74700
Ni485      Ni  0.01517382  0.79830996  0.67256004     1.25400
Ni486      Ni  0.50554245  0.71780874  0.66469921     1.25400
C487        C  0.06668648  0.77781306  0.73114141     0.87600
C488        C  0.45809920  0.73429302  0.60450230     0.87500
C489        C  0.42616362  0.71849935  0.70448105     0.87500
C490        C  0.09068207  0.80403585  0.62943225     0.87700
C491        C  0.34819219  0.71901291  0.57787118     0.80100
N492        N  0.39713584  0.74213600  0.57771619    -0.78200
C493        C  0.41654336  0.71465942  0.57600695     0.82500
N494        N  0.38684167  0.66378515  0.56500645    -0.78200
C495        C  0.33784563  0.64155855  0.55717634     0.82600
N496        N  0.31791093  0.66848940  0.56653146    -0.79900
C497        C  0.22101750  0.87592621  0.65095787     0.80100
N498        N  0.24145160  0.91086392  0.62117878    -0.78200
C499        C  0.21248235  0.91026856  0.59189103     0.82500
N500        N  0.16271649  0.87394156  0.59224578    -0.78200
C501        C  0.14311678  0.83631022  0.62021231     0.82600
N502        N  0.17244470  0.83872599  0.64938451    -0.79900
O503        O  0.24053211  0.68825546  0.78564430    -0.74600
O504        O  0.19590466  0.72702815  0.88171799    -0.74600
O505        O  0.18574517  0.73104828  0.80096966    -0.74700
O506        O  0.23841695  0.67571049  0.86677050    -0.74700
O507        O  0.31299851  0.74855385  0.86529523    -0.74700
O508        O  0.25376681  0.80944845  0.80880211    -0.74600
O509        O  0.26972928  0.80062773  0.88694605    -0.74600
O510        O  0.30949058  0.76652105  0.78658741    -0.74700
Ni511      Ni  0.21270796  0.70294754  0.83337271     1.25400
Ni512      Ni  0.28927231  0.78428201  0.83674590     1.25400
C513        C  0.28475135  0.72034362  0.77225319     0.87600
C514        C  0.22555539  0.77178502  0.89896966     0.87500
C515        C  0.20735644  0.77938664  0.79910490     0.87500
C516        C  0.28415326  0.70038544  0.87348392     0.87700
C517        C  0.28901459  0.62892336  0.70160704     0.80100
N518        N  0.33781625  0.64887871  0.69754543    -0.78200
C519        C  0.37230733  0.69605064  0.71396264     0.82500
N520        N  0.35650119  0.72258046  0.73631150    -0.78200
C521        C  0.30680786  0.70141866  0.74161758     0.82600
N522        N  0.27475960  0.65544303  0.72368484    -0.79900
C523        C  0.15034455  0.85191989  0.81870934     0.80100
N524        N  0.18211555  0.83724932  0.81855053    -0.78200
C525        C  0.17573370  0.79955951  0.79221687     0.82500
N526        N  0.13622806  0.77664756  0.76510498    -0.78200
C527        C  0.10557559  0.79361920  0.76361344     0.82600
N528        N  0.11341731  0.83052719  0.79070109    -0.79900
C529        C  0.13584284  0.94556611  0.80737190    -0.02200
C530        C  0.18559958  0.97958023  0.79572116     0.06400
C531        C  0.22165407  0.98311802  0.82124977    -0.08100
C532        C  0.20931684  0.94077487  0.84409194     0.03900
C533        C  0.16034697  0.89797898  0.84237586    -0.15400
C534        C  0.12486498  0.90868744  0.83616504    -0.08700
C535        C  0.20123740  0.50320870  0.75471071     0.04800
C536        C  0.18037296  0.52686940  0.73715203    -0.09800
C537        C  0.20239460  0.55709785  0.70306118    -0.00200
C538        C  0.25111989  0.57373656  0.69390243    -0.00300
C539        C  0.26497908  0.54049008  0.70263630    -0.13400
C540        C  0.23952484  0.50428960  0.73274772     0.00100
C541        C  0.18031894  0.58042130  0.68449734     0.39400
C542        C  0.25558751  0.47160233  0.74243375     0.36000
C543        C  0.09538460  0.94196453  0.78704564     0.35800
C544        C  0.24797043  0.93714268  0.85957015     0.36500
N545        N  0.16259070  0.59881789  0.66918208    -0.44300
N546        N  0.26816761  0.44546694  0.75119745    -0.44700
N547        N  0.27905946  0.93398300  0.87150676    -0.42100
N548        N  0.06254496  0.93863230  0.77100784    -0.43500
H549        H  0.08666026  0.87905072  0.84204607     0.12700
H550        H  0.26003469  0.01369484  0.81735768     0.09200
H551        H  0.14963794  0.52529955  0.75096952     0.10200
H552        H  0.29966231  0.54819169  0.69157149     0.16000
C553        C  0.35148119  0.79467544  0.66975691    -0.02200
C554        C  0.30874025  0.79294872  0.66449801     0.06400
C555        C  0.27784465  0.76665123  0.63024461    -0.08100
C556        C  0.28917600  0.74148788  0.60129405     0.03900
C557        C  0.33186826  0.74278443  0.60677199    -0.15400
C558        C  0.36192744  0.76843307  0.64169137    -0.08700
C559        C  0.29775031  0.82321296  0.69102829     0.04800
C560        C  0.32628948  0.87623813  0.68489632    -0.09800
C561        C  0.30257481  0.90075653  0.67896204    -0.00200
C562        C  0.25093417  0.87116252  0.68086308    -0.00300
C563        C  0.22682882  0.82471416  0.70135308    -0.13400
C564        C  0.24952427  0.79923237  0.70520853     0.00100
C565        C  0.33074655  0.95301090  0.66570950     0.39400
C566        C  0.21869305  0.74447571  0.71101370     0.36000
C567        C  0.38558419  0.82411788  0.70292475     0.35800
C568        C  0.25853571  0.71767473  0.56540011     0.36500
N569        N  0.35332388  0.99496651  0.65522644    -0.44300
N570        N  0.19329279  0.70054428  0.71463718    -0.44700
N571        N  0.23416613  0.69892889  0.53646880    -0.42100
N572        N  0.41292146  0.84779018  0.72939902    -0.43500
H573        H  0.39448513  0.76887336  0.64706297     0.12700
H574        H  0.24574628  0.76743682  0.62541961     0.09200
H575        H  0.36462219  0.89555591  0.67642343     0.10200
H576        H  0.18747402  0.80253039  0.70489012     0.16000
C577        C  0.05405339  0.70672162  0.83685997    -0.02200
C578        C  0.01859887  0.71794029  0.83661883     0.06400
C579        C  0.01559081  0.74570062  0.87008552    -0.08100
C580        C  0.04975123  0.76572102  0.90181839     0.03900
C581        C  0.08596420  0.75546027  0.90154651    -0.15400
C582        C  0.08660348  0.72466863  0.86932033    -0.08700
C583        C  0.47928166  0.69462735  0.80572782     0.04800
C584        C  0.44908571  0.64071770  0.80391560    -0.09800
C585        C  0.39850616  0.61601791  0.80727069    -0.00200
C586        C  0.37978187  0.64636202  0.81189128    -0.00300
C587        C  0.40884784  0.69733788  0.79939537    -0.13400
C588        C  0.45898415  0.72179221  0.79537308     0.00100
C589        C  0.36875901  0.56146749  0.81251804     0.39400
C590        C  0.48828073  0.77700152  0.79308478     0.36000
C591        C  0.05883193  0.67818143  0.80376277     0.35800
C592        C  0.04667842  0.79625749  0.93404797     0.36500
N593        N  0.34623097  0.51762380  0.81642057    -0.44300
N594        N  0.51025630  0.82117631  0.79167166    -0.44700
N595        N  0.04424815  0.82092637  0.95970937    -0.42100
N596        N  0.06280139  0.65557545  0.77719032    -0.43500
H597        H  0.11438000  0.71646108  0.86775499     0.12700
H598        H  0.98615700  0.75156928  0.87175469     0.09200
H599        H  0.46417782  0.61839494  0.80876710     0.10200
H600        H  0.39497913  0.72133452  0.80070386     0.16000
O601        O  0.81595251  0.04781609  0.44803537    -0.74600
O602        O  0.77725076  0.46549937  0.04517173    -0.74600
O603        O  0.76960989  0.44487693  0.46457720    -0.74700
O604        O  0.83017502  0.06805477  0.02901496    -0.74700
O605        O  0.76138628  0.06603538  0.03056198    -0.74700
O606        O  0.69774302  0.43652672  0.46697817    -0.74600
O607        O  0.70792185  0.46257042  0.04613751    -0.74600
O608        O  0.74437071  0.04013327  0.45090617    -0.74700
Ni609      Ni  0.80080503  0.00683243  0.49653735     1.25400
Ni610      Ni  0.72534172  0.50115041  0.99859252     1.25400
C611        C  0.78661843  0.05959920  0.43523892     0.87600
C612        C  0.73429209  0.44857156  0.06000443     0.87500
C613        C  0.72351374  0.41813839  0.45799046     0.87500
C614        C  0.80761257  0.08892334  0.03887041     0.87700
C615        C  0.62881149  0.28249970  0.42893421     0.80100
N616        N  0.65093727  0.33341311  0.43742084    -0.78200
C617        C  0.70028980  0.36414006  0.44311304     0.82500
N618        N  0.72781690  0.34439920  0.43490039    -0.78200
C619        C  0.70479298  0.29275151  0.42706035     0.82600
N620        N  0.65572127  0.26256327  0.42877930    -0.79900
C621        C  0.84247644  0.13552874  0.34253544     0.80100
N622        N  0.82971648  0.16921275  0.34673571    -0.78200
C623        C  0.80360056  0.16894368  0.37851941     0.82500
N624        N  0.78682699  0.13127240  0.40634785    -0.78200
C625        C  0.80132728  0.09797435  0.40365706     0.82600
N626        N  0.82970398  0.10084137  0.37194927    -0.79900
O627        O  0.55700576  0.31034441  0.21995384    -0.74600
O628        O  0.97491523  0.27752197  0.12394567    -0.74600
O629        O  0.95604519  0.26711858  0.20432858    -0.74700
O630        O  0.57149425  0.32810710  0.13953016    -0.74700
O631        O  0.56843290  0.25564673  0.13610858    -0.74700
O632        O  0.94163448  0.18992519  0.19300723    -0.74600
O633        O  0.97064659  0.20474941  0.11485545    -0.74600
O634        O  0.54320808  0.23283679  0.21444882    -0.74700
Ni635      Ni  0.51517375  0.29830978  0.17255988     1.25400
Ni636      Ni  0.00554237  0.21780870  0.16469951     1.25400
C637        C  0.56668653  0.27781299  0.23114123     0.87600
C638        C  0.95809915  0.23429295  0.10450256     0.87500
C639        C  0.92616362  0.21849954  0.20448139     0.87500
C640        C  0.59068194  0.30403566  0.12943203     0.87700
C641        C  0.84819211  0.21901278  0.07787144     0.80100
N642        N  0.89713571  0.24213589  0.07771655    -0.78200
C643        C  0.91654337  0.21465945  0.07600723     0.82500
N644        N  0.88684173  0.16378516  0.06500657    -0.78200
C645        C  0.83784575  0.14155854  0.05717646     0.82600
N646        N  0.81791090  0.16848927  0.06653161    -0.79900
C647        C  0.72101738  0.37592595  0.15095770     0.80100
N648        N  0.74145145  0.41086367  0.12117863    -0.78200
C649        C  0.71248228  0.41026837  0.09189091     0.82500
N650        N  0.66271635  0.37394135  0.09224558    -0.78200
C651        C  0.64311668  0.33630999  0.12021210     0.82600
N652        N  0.67244451  0.33872573  0.14938428    -0.79900
O653        O  0.74053221  0.18825561  0.28564450    -0.74600
O654        O  0.69590473  0.22702839  0.38171813    -0.74600
O655        O  0.68574509  0.23104832  0.30096978    -0.74700
O656        O  0.73841713  0.17571073  0.36677062    -0.74700
O657        O  0.81299870  0.24855409  0.36529531    -0.74700
O658        O  0.75376673  0.30944848  0.30880225    -0.74600
O659        O  0.76972941  0.30062788  0.38694623    -0.74600
O660        O  0.80949061  0.26652127  0.28658751    -0.74700
Ni661      Ni  0.71270801  0.20294768  0.33337285     1.25400
Ni662      Ni  0.78927235  0.28428216  0.33674602     1.25400
C663        C  0.78475146  0.22034383  0.27225339     0.87600
C664        C  0.72555543  0.27178517  0.39896982     0.87500
C665        C  0.70735638  0.27938668  0.29910499     0.87500
C666        C  0.78415347  0.20038570  0.37348405     0.87700
C667        C  0.78901458  0.12892362  0.20160709     0.80100
N668        N  0.83781632  0.14887907  0.19754553    -0.78200
C669        C  0.87230727  0.19605069  0.21396284     0.82500
N670        N  0.85650125  0.22258063  0.23631186    -0.78200
C671        C  0.80680788  0.20141878  0.24161782     0.82600
N672        N  0.77475967  0.15544330  0.22368501    -0.79900
C673        C  0.65034454  0.35192005  0.31870912     0.80100
N674        N  0.68211559  0.33724954  0.31855039    -0.78200
C675        C  0.67573374  0.29955962  0.29221680     0.82500
N676        N  0.63622811  0.27664759  0.26510495    -0.78200
C677        C  0.60557558  0.29361917  0.26361330     0.82600
N678        N  0.61341730  0.33052725  0.29070088    -0.79900
C679        C  0.63584287  0.44556634  0.30737158    -0.02200
C680        C  0.68559960  0.47958044  0.29572080     0.06400
C681        C  0.72165401  0.48311819  0.32124944    -0.08100
C682        C  0.70931686  0.44077510  0.34409161     0.03900
C683        C  0.66034695  0.39797920  0.34237554    -0.15400
C684        C  0.62486499  0.40868767  0.33616464    -0.08700
C685        C  0.70123741  0.00320895  0.25471052     0.04800
C686        C  0.68037300  0.02686973  0.23715197    -0.09800
C687        C  0.70239462  0.05709824  0.20306109    -0.00200
C688        C  0.75111991  0.07373691  0.19390231    -0.00300
C689        C  0.76497922  0.04049040  0.20263602    -0.13400
C690        C  0.73952476  0.00428979  0.23274749     0.00100
C691        C  0.68031898  0.08042164  0.18449740     0.39400
C692        C  0.75558721  0.97160244  0.24243337     0.36000
C693        C  0.59538458  0.44196463  0.28704517     0.35800
C694        C  0.74797041  0.43714291  0.35956997     0.36500
N695        N  0.66259062  0.09881837  0.16918222    -0.44300
N696        N  0.76816709  0.94546677  0.25119721    -0.44700
N697        N  0.77905936  0.43398320  0.37150681    -0.42100
N698        N  0.56254496  0.43863211  0.27100729    -0.43500
H699        H  0.58665995  0.37905067  0.34204563     0.12700
H700        H  0.76003505  0.51369537  0.31735731     0.09200
H701        H  0.64963820  0.02529995  0.25096943     0.10200
H702        H  0.79966140  0.04819170  0.19157149     0.16000
C703        C  0.85148103  0.29467531  0.16975728    -0.02200
C704        C  0.80874005  0.29294851  0.16449836     0.06400
C705        C  0.77784446  0.26665107  0.13024489    -0.08100
C706        C  0.78917586  0.24148768  0.10129435     0.03900
C707        C  0.83186806  0.24278419  0.10677232    -0.15400
C708        C  0.86192728  0.26843295  0.14169169    -0.08700
C709        C  0.79775009  0.32321281  0.19102857     0.04800
C710        C  0.82628910  0.37623786  0.18489652    -0.09800
C711        C  0.80257461  0.40075637  0.17896210    -0.00200
C712        C  0.75093395  0.37116230  0.18086299    -0.00300
C713        C  0.72682834  0.32471391  0.20135310    -0.13400
C714        C  0.74952402  0.29923224  0.20520874     0.00100
C715        C  0.83074633  0.45301069  0.16570953     0.39400
C716        C  0.71869289  0.24447573  0.21101405     0.36000
C717        C  0.88558411  0.32411795  0.20292510     0.35800
C718        C  0.75853549  0.21767444  0.06540047     0.36500
N719        N  0.85332363  0.49496626  0.15522629    -0.44300
N720        N  0.69329261  0.20054416  0.21463761    -0.44700
N721        N  0.73416576  0.19892839  0.03646926    -0.42100
N722        N  0.91292138  0.34779033  0.22939936    -0.43500
H723        H  0.89448512  0.26887335  0.14706328     0.12700
H724        H  0.74574646  0.26743667  0.12541988     0.09200
H725        H  0.86462270  0.39555608  0.17642345     0.10200
H726        H  0.68747487  0.30253085  0.20488988     0.16000
C727        C  0.55405369  0.20672204  0.33685998    -0.02200
C728        C  0.51859907  0.21794059  0.33661884     0.06400
C729        C  0.51559091  0.24570080  0.37008555    -0.08100
C730        C  0.54975124  0.26572117  0.40181850     0.03900
C731        C  0.58596435  0.25546059  0.40154659    -0.15400
C732        C  0.58660369  0.22466911  0.36932037    -0.08700
C733        C  0.97928172  0.19462747  0.30572797     0.04800
C734        C  0.94908571  0.14071785  0.30391571    -0.09800
C735        C  0.89850618  0.11601811  0.30727074    -0.00200
C736        C  0.87978193  0.14636224  0.31189136    -0.00300
C737        C  0.90884798  0.19733810  0.29939552    -0.13400
C738        C  0.95898428  0.22179242  0.29537327     0.00100
C739        C  0.86875893  0.06146766  0.31251790     0.39400
C740        C  0.98828094  0.27700173  0.29308506     0.36000
C741        C  0.55883214  0.17818171  0.30376287     0.35800
C742        C  0.54667845  0.29625773  0.43404800     0.36500
N743        N  0.84623067  0.01762395  0.31642034    -0.44300
N744        N  0.01025655  0.32117652  0.29167182    -0.44700
N745        N  0.54424832  0.32092689  0.45970921    -0.42100
N746        N  0.56280162  0.15557564  0.27719047    -0.43500
H747        H  0.61438062  0.21646155  0.36775503     0.12700
H748        H  0.48615697  0.25156939  0.37175469     0.09200
H749        H  0.96417777  0.11839502  0.30876717     0.10200
H750        H  0.89497921  0.22133498  0.30070410     0.16000
O751        O  0.81595247  0.04781602  0.94803528    -0.74600
O752        O  0.77725081  0.46549943  0.54517167    -0.74600
O753        O  0.76960983  0.44487682  0.96457720    -0.74700
O754        O  0.83017509  0.06805492  0.52901493    -0.74700
O755        O  0.76138625  0.06603539  0.53056206    -0.74700
O756        O  0.69774297  0.43652663  0.96697810    -0.74600
O757        O  0.70792188  0.46257046  0.54613753    -0.74600
O758        O  0.74437074  0.04013334  0.95090613    -0.74700
Ni759      Ni  0.80080492  0.00683236  0.99653729     1.25400
Ni760      Ni  0.72534169  0.50115046  0.49859259     1.25400
C761        C  0.78661838  0.05959916  0.93523884     0.87600
C762        C  0.73429218  0.44857167  0.56000444     0.87500
C763        C  0.72351363  0.41813827  0.95799041     0.87500
C764        C  0.80761254  0.08892347  0.53887038     0.87700
C765        C  0.62881136  0.28249950  0.92893412     0.80100
N766        N  0.65093710  0.33341291  0.93742075    -0.78200
C767        C  0.70028969  0.36413987  0.94311294     0.82500
N768        N  0.72781671  0.34439900  0.93490028    -0.78200
C769        C  0.70479280  0.29275127  0.92706027     0.82600
N770        N  0.65572108  0.26256305  0.92877922    -0.79900
C771        C  0.84247629  0.13552859  0.84253540     0.80100
N772        N  0.82971644  0.16921269  0.84673580    -0.78200
C773        C  0.80360046  0.16894355  0.87851945     0.82500
N774        N  0.78682685  0.13127225  0.90634783    -0.78200
C775        C  0.80132717  0.09797417  0.90365698     0.82600
N776        N  0.82970372  0.10084111  0.87194917    -0.79900
O777        O  0.55700588  0.31034450  0.71995374    -0.74600
O778        O  0.97491537  0.27752215  0.62394557    -0.74600
O779        O  0.95604523  0.26711863  0.70432847    -0.74700
O780        O  0.57149424  0.32810726  0.63953007    -0.74700
O781        O  0.56843299  0.25564694  0.63610857    -0.74700
O782        O  0.94163451  0.18992524  0.69300713    -0.74600
O783        O  0.97064669  0.20474957  0.61485534    -0.74600
O784        O  0.54320810  0.23283684  0.71444875    -0.74700
Ni785      Ni  0.51517379  0.29830990  0.67255983     1.25400
Ni786      Ni  0.00554242  0.21780884  0.66469944     1.25400
C787        C  0.56668660  0.27781307  0.73114114     0.87600
C788        C  0.95809925  0.23429312  0.60450245     0.87500
C789        C  0.92616364  0.21849957  0.70448127     0.87500
C790        C  0.59068202  0.30403586  0.62943206     0.87700
C791        C  0.84819219  0.21901298  0.57787143     0.80100
N792        N  0.89713577  0.24213607  0.57771647    -0.78200
C793        C  0.91654342  0.21465960  0.57600712     0.82500
N794        N  0.88684172  0.16378533  0.56500645    -0.78200
C795        C  0.83784576  0.14155870  0.55717641     0.82600
N796        N  0.81791089  0.16848944  0.56653168    -0.79900
C797        C  0.72101744  0.37592618  0.65095786     0.80100
N798        N  0.74145154  0.41086392  0.62117879    -0.78200
C799        C  0.71248237  0.41026856  0.59189103     0.82500
N800        N  0.66271647  0.37394161  0.59224572    -0.78200
C801        C  0.64311676  0.33631020  0.62021222     0.82600
N802        N  0.67244460  0.33872587  0.64938437    -0.79900
O803        O  0.74053217  0.18825557  0.78564446    -0.74600
O804        O  0.69590458  0.22702816  0.88171813    -0.74600
O805        O  0.68574509  0.23104826  0.80096976    -0.74700
O806        O  0.73841694  0.17571045  0.86677058    -0.74700
O807        O  0.81299846  0.24855387  0.86529528    -0.74700
O808        O  0.75376674  0.30944844  0.80880217    -0.74600
O809        O  0.76972922  0.30062769  0.88694621    -0.74600
O810        O  0.80949057  0.26652121  0.78658752    -0.74700
Ni811      Ni  0.71270790  0.20294753  0.83337283     1.25400
Ni812      Ni  0.78927223  0.28428202  0.83674600     1.25400
C813        C  0.78475140  0.22034381  0.77225333     0.87600
C814        C  0.72555527  0.27178497  0.89896980     0.87500
C815        C  0.70735638  0.27938663  0.79910495     0.87500
C816        C  0.78415325  0.20038547  0.87348402     0.87700
C817        C  0.78901458  0.12892356  0.70160704     0.80100
N818        N  0.83781631  0.14887903  0.69754545    -0.78200
C819        C  0.87230729  0.19605074  0.71396273     0.82500
N820        N  0.85650122  0.22258066  0.73631172    -0.78200
C821        C  0.80680786  0.20141878  0.74161773     0.82600
N822        N  0.77475965  0.15544324  0.72368494    -0.79900
C823        C  0.65034438  0.35191978  0.81870930     0.80100
N824        N  0.68211545  0.33724930  0.81855054    -0.78200
C825        C  0.67573367  0.29955950  0.79221686     0.82500
N826        N  0.63622814  0.27664759  0.76510491    -0.78200
C827        C  0.60557562  0.29361918  0.76361326     0.82600
N828        N  0.61341721  0.33052709  0.79070098    -0.79900
C829        C  0.63584274  0.44556613  0.80737178    -0.02200
C830        C  0.68559948  0.47958021  0.79572103     0.06400
C831        C  0.72165391  0.48311794  0.82124965    -0.08100
C832        C  0.70931672  0.44077480  0.84409179     0.03900
C833        C  0.66034680  0.39797893  0.84237574    -0.15400
C834        C  0.62486484  0.40868743  0.83616484    -0.08700
C835        C  0.70123739  0.00320875  0.75471073     0.04800
C836        C  0.68037311  0.02686954  0.73715211    -0.09800
C837        C  0.70239459  0.05709805  0.70306132    -0.00200
C838        C  0.75111990  0.07373673  0.69390248    -0.00300
C839        C  0.76497911  0.04049021  0.70263629    -0.13400
C840        C  0.73952478  0.00428962  0.73274770     0.00100
C841        C  0.68031895  0.08042142  0.68449755     0.39400
C842        C  0.75558740  0.97160235  0.74243373     0.36000
C843        C  0.59538450  0.44196442  0.78704531     0.35800
C844        C  0.74797029  0.43714265  0.85957016     0.36500
N845        N  0.66259077  0.09881817  0.66918214    -0.44300
N846        N  0.76816749  0.94546694  0.75119745    -0.44700
N847        N  0.77905928  0.43398301  0.87150700    -0.42100
N848        N  0.56254492  0.43863191  0.77100724    -0.43500
H849        H  0.58665986  0.37905050  0.84204582     0.12700
H850        H  0.76003477  0.51369496  0.81735758     0.09200
H851        H  0.64963761  0.02529966  0.75096990     0.10200
H852        H  0.79966203  0.04819178  0.69157162     0.16000
C853        C  0.85148114  0.29467551  0.66975723    -0.02200
C854        C  0.80874025  0.29294883  0.66449829     0.06400
C855        C  0.77784471  0.26665153  0.63024475    -0.08100
C856        C  0.78917611  0.24148811  0.60129426     0.03900
C857        C  0.83186820  0.24278446  0.60677228    -0.15400
C858        C  0.86192740  0.26843308  0.64169170    -0.08700
C859        C  0.79775031  0.32321308  0.69102859     0.04800
C860        C  0.82628923  0.37623811  0.68489662    -0.09800
C861        C  0.80257474  0.40075654  0.67896207    -0.00200
C862        C  0.75093403  0.37116246  0.68086305    -0.00300
C863        C  0.72682873  0.32471419  0.70135309    -0.13400
C864        C  0.74952418  0.29923243  0.70520880     0.00100
C865        C  0.83074644  0.45301086  0.66570950     0.39400
C866        C  0.71869309  0.24447593  0.71101399     0.36000
C867        C  0.88558424  0.32411814  0.70292504     0.35800
C868        C  0.75853568  0.21767478  0.56540036     0.36500
N869        N  0.85332377  0.49496649  0.65522644    -0.44300
N870        N  0.69329272  0.20054433  0.71463748    -0.44700
N871        N  0.73416604  0.19892888  0.53646916    -0.42100
N872        N  0.91292151  0.34779052  0.72939927    -0.43500
H873        H  0.89448499  0.26887338  0.64706329     0.12700
H874        H  0.74574675  0.26743717  0.62541976     0.09200
H875        H  0.86462311  0.39555653  0.67642357     0.10200
H876        H  0.68747379  0.30253026  0.70489003     0.16000
C877        C  0.55405357  0.20672188  0.83685992    -0.02200
C878        C  0.51859890  0.21794038  0.83661881     0.06400
C879        C  0.51559080  0.24570064  0.87008548    -0.08100
C880        C  0.54975122  0.26572113  0.90181836     0.03900
C881        C  0.58596421  0.25546042  0.90154650    -0.15400
C882        C  0.58660359  0.22466893  0.86932032    -0.08700
C883        C  0.97928156  0.19462731  0.80572788     0.04800
C884        C  0.94908559  0.14071765  0.80391559    -0.09800
C885        C  0.89850603  0.11601794  0.80727070    -0.00200
C886        C  0.87978183  0.14636206  0.81189140    -0.00300
C887        C  0.90884771  0.19733818  0.79939554    -0.13400
C888        C  0.95898414  0.22179222  0.79537327     0.00100
C889        C  0.86875885  0.06146749  0.81251810     0.39400
C890        C  0.98828083  0.27700156  0.79308506     0.36000
C891        C  0.55883217  0.17818177  0.80376277     0.35800
C892        C  0.54667837  0.29625760  0.93404789     0.36500
N893        N  0.84623062  0.01762382  0.81642083    -0.44300
N894        N  0.01025648  0.32117634  0.79167197    -0.44700
N895        N  0.54424821  0.32092671  0.95970916    -0.42100
N896        N  0.56280175  0.15557580  0.77719032    -0.43500
H897        H  0.61438035  0.21646141  0.86775496     0.12700
H898        H  0.48615686  0.25156924  0.87175464     0.09200
H899        H  0.96417766  0.11839491  0.80876702     0.10200
H900        H  0.89497975  0.22133379  0.80070403     0.16000
O901        O  0.81595250  0.54781611  0.44803525    -0.74600
O902        O  0.77725071  0.96549938  0.04517172    -0.74600
O903        O  0.76960985  0.94487691  0.46457727    -0.74700
O904        O  0.83017515  0.56805482  0.02901496    -0.74700
O905        O  0.76138636  0.56603538  0.03056198    -0.74700
O906        O  0.69774296  0.93652668  0.46697819    -0.74600
O907        O  0.70792181  0.96257043  0.04613752    -0.74600
O908        O  0.74437078  0.54013348  0.45090621    -0.74700
Ni909      Ni  0.80080501  0.50683244  0.49653724     1.25400
Ni910      Ni  0.72534168  0.00115040  0.99859252     1.25400
C911        C  0.78661845  0.55959931  0.43523889     0.87600
C912        C  0.73429206  0.94857157  0.06000444     0.87500
C913        C  0.72351368  0.91813836  0.45799047     0.87500
C914        C  0.80761264  0.58892337  0.03887041     0.87700
C915        C  0.62881152  0.78249956  0.42893425     0.80100
N916        N  0.65093722  0.83341295  0.43742091    -0.78200
C917        C  0.70028978  0.86414000  0.44311304     0.82500
N918        N  0.72781691  0.84439921  0.43490035    -0.78200
C919        C  0.70479308  0.79275153  0.42706030     0.82600
N920        N  0.65572135  0.76256319  0.42877928    -0.79900
C921        C  0.84247638  0.63552871  0.34253534     0.80100
N922        N  0.82971649  0.66921278  0.34673564    -0.78200
C923        C  0.80360056  0.66894372  0.37851932     0.82500
N924        N  0.78682693  0.63127240  0.40634772    -0.78200
C925        C  0.80132729  0.59797440  0.40365698     0.82600
N926        N  0.82970397  0.60084139  0.37194921    -0.79900
O927        O  0.55700576  0.81034445  0.21995386    -0.74600
O928        O  0.97491522  0.77752200  0.12394567    -0.74600
O929        O  0.95604523  0.76711857  0.20432856    -0.74700
O930        O  0.57149424  0.82810713  0.13953016    -0.74700
O931        O  0.56843289  0.75564676  0.13610858    -0.74700
O932        O  0.94163453  0.68992521  0.19300703    -0.74600
O933        O  0.97064663  0.70474947  0.11485534    -0.74600
O934        O  0.54320808  0.73283683  0.21444884    -0.74700
Ni935      Ni  0.51517373  0.79830980  0.17255988     1.25400
Ni936      Ni  0.00554242  0.71780876  0.16469938     1.25400
C937        C  0.56668653  0.77781305  0.23114127     0.87600
C938        C  0.95809915  0.73429299  0.10450254     0.87500
C939        C  0.92616365  0.71849952  0.20448130     0.87500
C940        C  0.59068193  0.80403568  0.12943203     0.87700
C941        C  0.84819215  0.71901286  0.07787136     0.80100
N942        N  0.89713582  0.74213604  0.07771635    -0.78200
C943        C  0.91654341  0.71465954  0.07600716     0.82500
N944        N  0.88684176  0.66378522  0.06500659    -0.78200
C945        C  0.83784579  0.64155858  0.05717647     0.82600
N946        N  0.81791097  0.66848934  0.06653161    -0.79900
C947        C  0.72101742  0.87592600  0.15095773     0.80100
N948        N  0.74145144  0.91086367  0.12117867    -0.78200
C949        C  0.71248227  0.91026839  0.09189093     0.82500
N950        N  0.66271635  0.87394137  0.09224560    -0.78200
C951        C  0.64311668  0.83631001  0.12021212     0.82600
N952        N  0.67244450  0.83872573  0.14938432    -0.79900
O953        O  0.74053225  0.68825563  0.28564445    -0.74600
O954        O  0.69590484  0.72702842  0.38171812    -0.74600
O955        O  0.68574510  0.73104832  0.30096977    -0.74700
O956        O  0.73841713  0.67571076  0.36677062    -0.74700
O957        O  0.81299870  0.74855409  0.36529507    -0.74700
O958        O  0.75376675  0.80944850  0.30880215    -0.74600
O959        O  0.76972949  0.80062797  0.38694608    -0.74600
O960        O  0.80949061  0.76652130  0.28658738    -0.74700
Ni961      Ni  0.71270803  0.70294769  0.33337283     1.25400
Ni962      Ni  0.78927237  0.78428218  0.33674586     1.25400
C963        C  0.78475144  0.72034380  0.27225329     0.87600
C964        C  0.72555554  0.77178524  0.39896972     0.87500
C965        C  0.70735643  0.77938670  0.29910494     0.87500
C966        C  0.78415348  0.70038574  0.37348395     0.87700
C967        C  0.78901464  0.62892372  0.20160696     0.80100
N968        N  0.83781633  0.64887904  0.19754549    -0.78200
C969        C  0.87230736  0.69605071  0.21396276     0.82500
N970        N  0.85650126  0.72258068  0.23631169    -0.78200
C971        C  0.80680798  0.70141892  0.24161766     0.82600
N972        N  0.77475968  0.65544339  0.22368479    -0.79900
C973        C  0.65034465  0.85192006  0.31870916     0.80100
N974        N  0.68211577  0.83724961  0.31855036    -0.78200
C975        C  0.67573377  0.79955962  0.29221676     0.82500
N976        N  0.63622816  0.77664764  0.26510496    -0.78200
C977        C  0.60557558  0.79361918  0.26361336     0.82600
N978        N  0.61341734  0.83052723  0.29070104    -0.79900
C979        C  0.63584286  0.94556632  0.30737173    -0.02200
C980        C  0.68559962  0.97958043  0.29572097     0.06400
C981        C  0.72165408  0.98311823  0.32124956    -0.08100
C982        C  0.70931687  0.94077508  0.34409175     0.03900
C983        C  0.66034703  0.89797919  0.34237566    -0.15400
C984        C  0.62486501  0.90868762  0.33616484    -0.08700
C985        C  0.70123738  0.50320894  0.25471038     0.04800
C986        C  0.68037296  0.52686969  0.23715180    -0.09800
C987        C  0.70239463  0.55709833  0.20306102    -0.00200
C988        C  0.75111993  0.57373698  0.19390227    -0.00300
C989        C  0.76497923  0.54049046  0.20263596    -0.13400
C990        C  0.73952471  0.50428979  0.23274733     0.00100
C991        C  0.68031898  0.58042169  0.18449731     0.39400
C992        C  0.75558726  0.47160248  0.24243331     0.36000
C993        C  0.59538473  0.94196463  0.28704538     0.35800
C994        C  0.74797042  0.93714291  0.35957002     0.36500
N995        N  0.66259062  0.59881836  0.16918197    -0.44300
N996        N  0.76816730  0.44546706  0.25119721    -0.44700
N997        N  0.77905941  0.93398322  0.37150682    -0.42100
N998        N  0.56254500  0.93863215  0.27100733    -0.43500
H999        H  0.58666024  0.87905087  0.34204585     0.12700
H1000       H  0.76003471  0.01369505  0.31735746     0.09200
H1001       H  0.64963795  0.52529978  0.25096928     0.10200
H1002       H  0.79966157  0.54819184  0.19157144     0.16000
C1003       C  0.85148113  0.79467544  0.16975713    -0.02200
C1004       C  0.80874018  0.79294870  0.16449821     0.06400
C1005       C  0.77784462  0.76665134  0.13024473    -0.08100
C1006       C  0.78917594  0.74148788  0.10129421     0.03900
C1007       C  0.83186811  0.74278426  0.10677223    -0.15400
C1008       C  0.86192727  0.76843294  0.14169160    -0.08700
C1009       C  0.79775025  0.82321293  0.19102855     0.04800
C1010       C  0.82628939  0.87623805  0.18489648    -0.09800
C1011       C  0.80257469  0.90075644  0.17896213    -0.00200
C1012       C  0.75093400  0.87116235  0.18086308    -0.00300
C1013       C  0.72682871  0.82471410  0.20135311    -0.13400
C1014       C  0.74952412  0.79923226  0.20520869     0.00100
C1015       C  0.83074634  0.95301071  0.16570954     0.39400
C1016       C  0.71869298  0.74447578  0.21101387     0.36000
C1017       C  0.88558414  0.82411798  0.20292490     0.35800
C1018       C  0.75853557  0.71767463  0.06540025     0.36500
N1019       N  0.85332362  0.99496630  0.15522628    -0.44300
N1020       N  0.69329259  0.70054419  0.21463755    -0.44700
N1021       N  0.73416598  0.69892877  0.03646902    -0.42100
N1022       N  0.91292134  0.84779033  0.22939929    -0.43500
H1023       H  0.89448512  0.76887325  0.14706323     0.12700
H1024       H  0.74574643  0.76743702  0.12541973     0.09200
H1025       H  0.86462208  0.89555585  0.17642356     0.10200
H1026       H  0.68747375  0.80253017  0.20489004     0.16000
C1027       C  0.55405369  0.70672207  0.33685998    -0.02200
C1028       C  0.51859911  0.71794065  0.33661885     0.06400
C1029       C  0.51559098  0.74570091  0.37008557    -0.08100
C1030       C  0.54975143  0.76572136  0.40181844     0.03900
C1031       C  0.58596439  0.75546056  0.40154659    -0.15400
C1032       C  0.58660367  0.72466907  0.36932037    -0.08700
C1033       C  0.97928168  0.69462740  0.30572799     0.04800
C1034       C  0.94908568  0.64071780  0.30391572    -0.09800
C1035       C  0.89850613  0.61601804  0.30727072    -0.00200
C1036       C  0.87978188  0.64636219  0.31189131    -0.00300
C1037       C  0.90884792  0.69733803  0.29939549    -0.13400
C1038       C  0.95898423  0.72179234  0.29537326     0.00100
C1039       C  0.86875890  0.56146765  0.31251790     0.39400
C1040       C  0.98828082  0.77700154  0.29308505     0.36000
C1041       C  0.55883212  0.67818173  0.30376287     0.35800
C1042       C  0.54667855  0.79625783  0.43404800     0.36500
N1043       N  0.84623062  0.51762389  0.31642036    -0.44300
N1044       N  0.01025648  0.82117643  0.29167182    -0.44700
N1045       N  0.54424829  0.82092690  0.45970922    -0.42100
N1046       N  0.56280161  0.65557567  0.27719047    -0.43500
H1047       H  0.61438056  0.71646137  0.36775507     0.12700
H1048       H  0.48615717  0.75156944  0.37175476     0.09200
H1049       H  0.96417776  0.61839491  0.30876720     0.10200
H1050       H  0.89497919  0.72133482  0.30070400     0.16000
O1051       O  0.81595250  0.54781605  0.94803527    -0.74600
O1052       O  0.77725080  0.96549943  0.54517176    -0.74600
O1053       O  0.76960979  0.94487685  0.96457720    -0.74700
O1054       O  0.83017501  0.56805490  0.52901483    -0.74700
O1055       O  0.76138621  0.56603543  0.53056209    -0.74700
O1056       O  0.69774293  0.93652661  0.96697810    -0.74600
O1057       O  0.70792187  0.96257045  0.54613756    -0.74600
O1058       O  0.74437075  0.54013337  0.95090614    -0.74700
Ni1059     Ni  0.80080502  0.50683236  0.99653729     1.25400
Ni1060     Ni  0.72534169  0.00115041  0.49859259     1.25400
C1061       C  0.78661842  0.55959918  0.93523885     0.87600
C1062       C  0.73429216  0.94857165  0.56000450     0.87500
C1063       C  0.72351366  0.91813828  0.95799040     0.87500
C1064       C  0.80761250  0.58892347  0.53887035     0.87700
C1065       C  0.62881142  0.78249951  0.92893412     0.80100
N1066       N  0.65093720  0.83341290  0.93742075    -0.78200
C1067       C  0.70028971  0.86413989  0.94311294     0.82500
N1068       N  0.72781684  0.84439905  0.93490028    -0.78200
C1069       C  0.70479289  0.79275132  0.92706028     0.82600
N1070       N  0.65572124  0.76256308  0.92877921    -0.79900
C1071       C  0.84247635  0.63552857  0.84253540     0.80100
N1072       N  0.82971644  0.66921263  0.84673573    -0.78200
C1073       C  0.80360047  0.66894353  0.87851935     0.82500
N1074       N  0.78682685  0.63127221  0.90634778    -0.78200
C1075       C  0.80132720  0.59797422  0.90365697     0.82600
N1076       N  0.82970383  0.60084117  0.87194921    -0.79900
O1077       O  0.55700581  0.81034442  0.71995378    -0.74600
O1078       O  0.97491535  0.77752218  0.62394558    -0.74600
O1079       O  0.95604520  0.76711860  0.70432848    -0.74700
O1080       O  0.57149432  0.82810723  0.63953010    -0.74700
O1081       O  0.56843295  0.75564684  0.63610857    -0.74700
O1082       O  0.94163445  0.68992521  0.69300695    -0.74600
O1083       O  0.97064674  0.70474964  0.61485530    -0.74600
O1084       O  0.54320802  0.73283676  0.71444885    -0.74700
Ni1085     Ni  0.51517379  0.79830990  0.67255983     1.25400
Ni1086     Ni  0.00554243  0.71780882  0.66469940     1.25400
C1087       C  0.56668654  0.77781302  0.73114121     0.87600
C1088       C  0.95809927  0.73429316  0.60450245     0.87500
C1089       C  0.92616356  0.71849945  0.70448119     0.87500
C1090       C  0.59068201  0.80403574  0.62943204     0.87700
C1091       C  0.84819223  0.71901302  0.57787136     0.80100
N1092       N  0.89713580  0.74213610  0.57771647    -0.78200
C1093       C  0.91654347  0.71465965  0.57600713     0.82500
N1094       N  0.88684177  0.66378534  0.56500645    -0.78200
C1095       C  0.83784583  0.64155874  0.55717636     0.82600
N1096       N  0.81791097  0.66848950  0.56653152    -0.79900
C1097       C  0.72101747  0.87592606  0.65095782     0.80100
N1098       N  0.74145149  0.91086375  0.62117879    -0.78200
C1099       C  0.71248236  0.91026849  0.59189104     0.82500
N1100       N  0.66271646  0.87394145  0.59224571    -0.78200
C1101       C  0.64311678  0.83631002  0.62021217     0.82600
N1102       N  0.67244455  0.83872566  0.64938434    -0.79900
O1103       O  0.74053213  0.68825545  0.78564439    -0.74600
O1104       O  0.69590463  0.72702824  0.88171802    -0.74600
O1105       O  0.68574508  0.73104826  0.80096967    -0.74700
O1106       O  0.73841701  0.67571054  0.86677050    -0.74700
O1107       O  0.81299858  0.74855389  0.86529520    -0.74700
O1108       O  0.75376673  0.80944843  0.80880218    -0.74600
O1109       O  0.76972934  0.80062767  0.88694623    -0.74600
O1110       O  0.80949051  0.76652111  0.78658741    -0.74700
Ni1111     Ni  0.71270792  0.70294754  0.83337273     1.25400
Ni1112     Ni  0.78927227  0.78428200  0.83674595     1.25400
C1113       C  0.78475134  0.72034361  0.77225330     0.87600
C1114       C  0.72555539  0.77178500  0.89896975     0.87500
C1115       C  0.70735639  0.77938663  0.79910491     0.87500
C1116       C  0.78415333  0.70038549  0.87348396     0.87700
C1117       C  0.78901456  0.62892350  0.70160702     0.80100
N1118       N  0.83781623  0.64887890  0.69754541    -0.78200
C1119       C  0.87230729  0.69605067  0.71396271     0.82500
N1120       N  0.85650117  0.72258047  0.73631175    -0.78200
C1121       C  0.80680789  0.70141867  0.74161776     0.82600
N1122       N  0.77475960  0.65544313  0.72368492    -0.79900
C1123       C  0.65034453  0.85191984  0.81870929     0.80100
N1124       N  0.68211557  0.83724935  0.81855050    -0.78200
C1125       C  0.67573372  0.79955951  0.79221684     0.82500
N1126       N  0.63622815  0.77664759  0.76510492    -0.78200
C1127       C  0.60557566  0.79361920  0.76361329     0.82600
N1128       N  0.61341731  0.83052713  0.79070101    -0.79900
C1129       C  0.63584283  0.94556609  0.80737180    -0.02200
C1130       C  0.68559961  0.97958027  0.79572115     0.06400
C1131       C  0.72165400  0.98311799  0.82124980    -0.08100
C1132       C  0.70931673  0.94077480  0.84409195     0.03900
C1133       C  0.66034685  0.89797891  0.84237579    -0.15400
C1134       C  0.62486503  0.90868748  0.83616484    -0.08700
C1135       C  0.70123731  0.50320874  0.75471063     0.04800
C1136       C  0.68037287  0.52686948  0.73715200    -0.09800
C1137       C  0.70239456  0.55709804  0.70306120    -0.00200
C1138       C  0.75111985  0.57373673  0.69390243    -0.00300
C1139       C  0.76497902  0.54049021  0.70263626    -0.13400
C1140       C  0.73952473  0.50428968  0.73274761     0.00100
C1141       C  0.68031892  0.58042146  0.68449735     0.39400
C1142       C  0.75558731  0.47160230  0.74243359     0.36000
C1143       C  0.59538465  0.94196443  0.78704537     0.35800
C1144       C  0.74797024  0.93714253  0.85957021     0.36500
N1145       N  0.66259076  0.59881820  0.66918208    -0.44300
N1146       N  0.76816725  0.44546686  0.75119741    -0.44700
N1147       N  0.77905928  0.93398296  0.87150701    -0.42100
N1148       N  0.56254496  0.93863195  0.77100751    -0.43500
H1149       H  0.58665939  0.87905001  0.84204583     0.12700
H1150       H  0.76003469  0.01369485  0.81735774     0.09200
H1151       H  0.64963785  0.52529957  0.75096945     0.10200
H1152       H  0.79966219  0.54819179  0.69157143     0.16000
C1153       C  0.85148112  0.79467545  0.66975723    -0.02200
C1154       C  0.80874027  0.79294884  0.66449825     0.06400
C1155       C  0.77784474  0.76665157  0.63024471    -0.08100
C1156       C  0.78917612  0.74148816  0.60129418     0.03900
C1157       C  0.83186816  0.74278442  0.60677223    -0.15400
C1158       C  0.86192736  0.76843305  0.64169166    -0.08700
C1159       C  0.79775034  0.82321308  0.69102857     0.04800
C1160       C  0.82628951  0.87623824  0.68489658    -0.09800
C1161       C  0.80257477  0.90075655  0.67896206    -0.00200
C1162       C  0.75093410  0.87116247  0.68086307    -0.00300
C1163       C  0.72682861  0.82471411  0.70135310    -0.13400
C1164       C  0.74952425  0.79923243  0.70520867     0.00100
C1165       C  0.83074645  0.95301087  0.66570950     0.39400
C1166       C  0.71869309  0.74447595  0.71101393     0.36000
C1167       C  0.88558413  0.82411788  0.70292505     0.35800
C1168       C  0.75853584  0.71767510  0.56540014     0.36500
N1169       N  0.85332375  0.99496651  0.65522644    -0.44300
N1170       N  0.69329271  0.70054436  0.71463749    -0.44700
N1171       N  0.73416629  0.69892934  0.53646888    -0.42100
N1172       N  0.91292157  0.84779015  0.72939929    -0.43500
H1173       H  0.89448495  0.76887334  0.64706327     0.12700
H1174       H  0.74574678  0.76743733  0.62541967     0.09200
H1175       H  0.86462229  0.89555610  0.67642380     0.10200
H1176       H  0.68747480  0.80253084  0.70488999     0.16000
C1177       C  0.55405361  0.70672193  0.83685991    -0.02200
C1178       C  0.51859903  0.71794053  0.83661875     0.06400
C1179       C  0.51559099  0.74570092  0.87008540    -0.08100
C1180       C  0.54975135  0.76572122  0.90181834     0.03900
C1181       C  0.58596432  0.75546043  0.90154650    -0.15400
C1182       C  0.58660360  0.72466894  0.86932029    -0.08700
C1183       C  0.97928155  0.69462722  0.80572790     0.04800
C1184       C  0.94908556  0.64071761  0.80391560    -0.09800
C1185       C  0.89850604  0.61601788  0.80727072    -0.00200
C1186       C  0.87978181  0.64636203  0.81189139    -0.00300
C1187       C  0.90884781  0.69733785  0.79939549    -0.13400
C1188       C  0.95898409  0.72179215  0.79537324     0.00100
C1189       C  0.86875887  0.56146746  0.81251804     0.39400
C1190       C  0.98828071  0.77700135  0.79308505     0.36000
C1191       C  0.55883216  0.67818178  0.80376275     0.35800
C1192       C  0.54667846  0.79625764  0.93404791     0.36500
N1193       N  0.84623084  0.51762379  0.81642057    -0.44300
N1194       N  0.01025639  0.82117623  0.79167197    -0.44700
N1195       N  0.54424819  0.82092670  0.95970913    -0.42100
N1196       N  0.56280174  0.65557582  0.77719031    -0.43500
H1197       H  0.61438048  0.71646133  0.86775494     0.12700
H1198       H  0.48615731  0.75156958  0.87175453     0.09200
H1199       H  0.96417764  0.61839478  0.80876704     0.10200
H1200       H  0.89497905  0.72133465  0.80070401     0.16000
loop_ 
_geom_bond_atom_site_label_1 
_geom_bond_atom_site_label_2 
_geom_bond_distance 
_geom_bond_site_symmetry_2 
_ccdc_geom_bond_type 
O1           Ni9   1.958       .  S
O1           C11   1.293       .  A
O2         Ni459   1.951   1_554  S
O2           C12   1.292       .  A
O3         Ni309   1.897       .  S
O3           C13   1.272       .  A
O4         Ni159   1.892   1_554  S
O4           C14   1.272       .  A
O5         Ni310   1.961   1_554  S
O5           C14   1.293       .  A
O6         Ni160   1.961       .  S
O6           C13   1.295       .  A
O7          Ni10   1.885   1_554  S
O7           C12   1.269       .  A
O8         Ni460   1.892       .  S
O8           C11   1.270       .  A
Ni9         O452   1.951   1_545  S
Ni9         O303   1.897   1_545  S
Ni9         O154   1.892       .  S
Ni9        Ni460   2.388       .  S
Ni10        O305   1.961   1_556  S
Ni10        O156   1.961       .  S
Ni10        O458   1.892       .  S
Ni10       Ni459   2.388       .  S
C11          C25   1.477       .  S
C12          C49   1.468       .  S
C13          C17   1.487       .  S
C14          C45   1.481       .  S
C15         C131   1.466       .  S
C15          N16   1.358       .  A
C15          N20   1.344       .  A
N16          C17   1.356       .  A
C17          N18   1.377       .  A
N18          C19   1.372       .  A
C19          C64   1.482       .  S
C19          N20   1.338       .  A
C21         C136   1.465       .  S
C21          N22   1.347       .  A
C21          N26   1.358       .  A
N22          C23   1.337       .  A
C23          C66   1.466       .  S
C23          N24   1.367       .  A
N24          C25   1.377       .  A
C25          N26   1.357       .  A
O27         Ni35   1.970       .  S
O27          C37   1.299       .  A
O28        Ni635   1.931       .  S
O28          C38   1.293       .  A
O29        Ni635   1.922       .  S
O29          C39   1.274       .  A
O30         Ni35   1.881       .  S
O30          C40   1.265       .  A
O31        Ni636   1.956       .  S
O31          C40   1.294       .  A
O32         Ni36   1.993       .  S
O32          C39   1.304       .  A
O33         Ni36   1.904       .  S
O33          C38   1.270       .  A
O34        Ni636   1.938       .  S
O34          C37   1.278       .  A
Ni35        O628   1.931   1_455  S
Ni35        O629   1.922   1_455  S
Ni35       Ni636   2.380       .  S
Ni36        O631   1.956       .  S
Ni36        O634   1.938       .  S
Ni36       Ni635   2.380       .  S
C37          C77   1.517       .  S
C38          C43   1.473       .  S
C39          C69   1.525       .  S
C40          C51   1.461       .  S
C41         C107   1.461       .  S
C41          N42   1.343       .  A
C41          N46   1.361       .  A
N42          C43   1.335       .  A
C43          N44   1.366       .  A
N44          C45   1.373       .  A
C45          N46   1.360       .  A
C47         C112   1.468       .  S
C47          N48   1.356       .  A
C47          N52   1.350       .  A
N48          C49   1.354       .  A
C49          N50   1.373       .  A
N50          C51   1.364       .  A
C51          N52   1.337       .  A
O53         Ni61   1.969       .  S
O53          C63   1.300       .  A
O54         Ni61   1.936       .  S
O54          C64   1.294       .  A
O55         Ni61   1.918       .  S
O55          C65   1.273       .  A
O56         Ni61   1.887       .  S
O56          C66   1.265       .  A
O57         Ni62   1.959       .  S
O57          C66   1.296       .  A
O58         Ni62   1.990       .  S
O58          C65   1.303       .  A
O59         Ni62   1.913       .  S
O59          C64   1.271       .  A
O60         Ni62   1.943       .  S
O60          C63   1.278       .  A
Ni61        Ni62   2.379       .  S
C63          C71   1.521       .  S
C65          C75   1.517       .  S
C67          C88   1.478       .  S
C67          N68   1.362       .  A
C67          N72   1.353       .  A
N68          C69   1.361       .  A
C69          N70   1.393       .  A
N70          C71   1.386       .  A
C71          N72   1.341       .  A
C73          C83   1.486       .  S
C73          N74   1.361       .  A
C73          N78   1.356       .  A
N74          C75   1.361       .  A
C75          N76   1.390       .  A
N76          C77   1.385       .  A
C77          N78   1.343       .  A
C79          C80   1.418       .  A
C79          C84   1.402       .  A
C79          C93   1.442       .  S
C80         C385   1.497       .  S
C80          C81   1.412       .  A
C81          C82   1.400       .  A
C81         H100   1.084       .  S
C82          C83   1.404       .  A
C82          C94   1.441       .  S
C83          C84   1.405       .  A
C84          H99   1.084       .  S
C85         C380   1.497   1_545  S
C85          C86   1.406       .  A
C85          C90   1.426       .  A
C86          C87   1.397       .  A
C86         H101   1.078       .  S
C87          C88   1.410       .  A
C87          C91   1.444       .  S
C88          C89   1.398       .  A
C89          C90   1.398       .  A
C89         H102   1.084       .  S
C90          C92   1.444   1_545  S
C91          N95   1.157       .  T
C92          N96   1.157       .  T
C93          N98   1.158       .  T
C94          N97   1.157       .  T
C103        C104   1.390       .  A
C103        C108   1.380       .  A
C103        C117   1.447       .  S
C104        C109   1.455       .  S
C104        C105   1.414       .  A
C105        C106   1.392       .  A
C105        H124   1.085       .  S
C106        C107   1.397       .  A
C106        C118   1.443       .  S
C107        C108   1.417       .  A
C108        H123   1.081       .  S
C109        C110   1.404       .  A
C109        C114   1.400       .  A
C110        C111   1.393       .  A
C110        H125   1.085       .  S
C111        C112   1.407       .  A
C111        C115   1.443       .  S
C112        C113   1.404       .  A
C113        C114   1.380       .  A
C113        H126   1.078       .  S
C114        C116   1.447       .  S
C115        N119   1.157       .  T
C116        N120   1.157       .  T
C117        N122   1.157       .  T
C118        N121   1.157       .  T
C127        C128   1.397       .  A
C127        C132   1.381       .  A
C127        C141   1.447       .  S
C128        C733   1.467   1_455  S
C128        C129   1.415       .  A
C129        C130   1.390       .  A
C129        H148   1.084   1_455  S
C130        C131   1.400       .  A
C130        C142   1.444       .  S
C131        C132   1.417       .  A
C132        H147   1.081       .  S
C133        C728   1.467       .  S
C133        C134   1.406       .  A
C133        C138   1.402       .  A
C134        C135   1.390       .  A
C134        H149   1.082       .  S
C135        C136   1.403       .  A
C135        C139   1.438       .  S
C136        C137   1.404       .  A
C137        C138   1.380       .  A
C137        H150   1.081       .  S
C138        C140   1.444       .  S
C139        N143   1.155       .  T
C140        N144   1.156       .  T
C141        N146   1.157       .  T
C142        N145   1.157       .  T
O151       Ni159   1.958       .  S
O151        C161   1.293       .  A
O152       Ni309   1.951       .  S
O152        C162   1.292       .  A
O153       Ni459   1.897       .  S
O153        C163   1.272       .  A
O154        C164   1.272       .  A
O155       Ni460   1.961       .  S
O155        C164   1.293       .  A
O156        C163   1.295       .  A
O157       Ni160   1.885       .  S
O157        C162   1.269       .  A
O158       Ni310   1.892       .  S
O158        C161   1.270       .  A
Ni159       O302   1.951   1_546  S
Ni159       O453   1.897   1_545  S
Ni159      Ni310   2.388       .  S
Ni160       O455   1.961       .  S
Ni160       O308   1.892       .  S
Ni160      Ni309   2.388       .  S
C161        C175   1.477       .  S
C162        C199   1.468       .  S
C163        C167   1.487       .  S
C164        C195   1.481       .  S
C165        C281   1.466       .  S
C165        N166   1.358       .  A
C165        N170   1.344       .  A
N166        C167   1.356       .  A
C167        N168   1.377       .  A
N168        C169   1.372       .  A
C169        C214   1.482       .  S
C169        N170   1.338       .  A
C171        C286   1.465       .  S
C171        N172   1.347       .  A
C171        N176   1.358       .  A
N172        C173   1.337       .  A
C173        C216   1.466       .  S
C173        N174   1.367       .  A
N174        C175   1.377       .  A
C175        N176   1.357       .  A
O177       Ni185   1.970       .  S
O177        C187   1.299       .  A
O178       Ni785   1.931       .  S
O178        C188   1.293       .  A
O179       Ni785   1.922       .  S
O179        C189   1.274       .  A
O180       Ni185   1.881       .  S
O180        C190   1.265       .  A
O181       Ni786   1.956       .  S
O181        C190   1.294       .  A
O182       Ni186   1.993       .  S
O182        C189   1.304       .  A
O183       Ni186   1.904       .  S
O183        C188   1.270       .  A
O184       Ni786   1.938       .  S
O184        C187   1.278       .  A
Ni185       O778   1.931   1_455  S
Ni185       O779   1.922   1_455  S
Ni185      Ni786   2.380       .  S
Ni186       O781   1.956       .  S
Ni186       O784   1.938       .  S
Ni186      Ni785   2.380       .  S
C187        C227   1.517       .  S
C188        C193   1.473       .  S
C189        C219   1.525       .  S
C190        C201   1.461       .  S
C191        C257   1.461       .  S
C191        N192   1.343       .  A
C191        N196   1.361       .  A
N192        C193   1.335       .  A
C193        N194   1.366       .  A
N194        C195   1.373       .  A
C195        N196   1.360       .  A
C197        C262   1.468       .  S
C197        N198   1.356       .  A
C197        N202   1.350       .  A
N198        C199   1.354       .  A
C199        N200   1.373       .  A
N200        C201   1.364       .  A
C201        N202   1.337       .  A
O203       Ni211   1.969       .  S
O203        C213   1.300       .  A
O204       Ni211   1.936       .  S
O204        C214   1.294       .  A
O205       Ni211   1.918       .  S
O205        C215   1.273       .  A
O206       Ni211   1.887       .  S
O206        C216   1.265       .  A
O207       Ni212   1.959       .  S
O207        C216   1.296       .  A
O208       Ni212   1.990       .  S
O208        C215   1.303       .  A
O209       Ni212   1.913       .  S
O209        C214   1.271       .  A
O210       Ni212   1.943       .  S
O210        C213   1.278       .  A
Ni211      Ni212   2.379       .  S
C213        C221   1.521       .  S
C215        C225   1.517       .  S
C217        C238   1.478       .  S
C217        N218   1.362       .  A
C217        N222   1.353       .  A
N218        C219   1.361       .  A
C219        N220   1.393       .  A
N220        C221   1.386       .  A
C221        N222   1.341       .  A
C223        C233   1.486       .  S
C223        N224   1.361       .  A
C223        N228   1.356       .  A
N224        C225   1.361       .  A
C225        N226   1.390       .  A
N226        C227   1.385       .  A
C227        N228   1.343       .  A
C229        C230   1.418       .  A
C229        C234   1.402       .  A
C229        C243   1.442       .  S
C230        C535   1.497       .  S
C230        C231   1.412       .  A
C231        C232   1.400       .  A
C231        H250   1.084       .  S
C232        C233   1.404       .  A
C232        C244   1.441       .  S
C233        C234   1.405       .  A
C234        H249   1.084       .  S
C235        C530   1.497   1_545  S
C235        C236   1.406       .  A
C235        C240   1.426       .  A
C236        C237   1.397       .  A
C236        H251   1.078       .  S
C237        C238   1.410       .  A
C237        C241   1.444       .  S
C238        C239   1.398       .  A
C239        C240   1.398       .  A
C239        H252   1.084       .  S
C240        C242   1.444   1_545  S
C241        N245   1.157       .  T
C242        N246   1.157       .  T
C243        N248   1.158       .  T
C244        N247   1.157       .  T
C253        C254   1.390       .  A
C253        C258   1.380       .  A
C253        C267   1.447       .  S
C254        C259   1.455       .  S
C254        C255   1.414       .  A
C255        C256   1.392       .  A
C255        H274   1.085       .  S
C256        C257   1.397       .  A
C256        C268   1.443       .  S
C257        C258   1.417       .  A
C258        H273   1.081       .  S
C259        C260   1.404       .  A
C259        C264   1.400       .  A
C260        C261   1.393       .  A
C260        H275   1.085       .  S
C261        C262   1.407       .  A
C261        C265   1.443       .  S
C262        C263   1.404       .  A
C263        C264   1.380       .  A
C263        H276   1.078       .  S
C264        C266   1.447       .  S
C265        N269   1.157       .  T
C266        N270   1.157       .  T
C267        N272   1.157       .  T
C268        N271   1.157       .  T
C277        C278   1.397       .  A
C277        C282   1.381       .  A
C277        C291   1.447       .  S
C278        C883   1.467   1_455  S
C278        C279   1.415       .  A
C279        C280   1.390       .  A
C279        H298   1.084   1_455  S
C280        C281   1.400       .  A
C280        C292   1.444       .  S
C281        C282   1.416       .  A
C282        H297   1.081       .  S
C283        C878   1.467       .  S
C283        C284   1.406       .  A
C283        C288   1.402       .  A
C284        C285   1.390       .  A
C284        H299   1.082       .  S
C285        C286   1.403       .  A
C285        C289   1.438       .  S
C286        C287   1.404       .  A
C287        C288   1.380       .  A
C287        H300   1.081       .  S
C288        C290   1.444       .  S
C289        N293   1.155       .  T
C290        N294   1.156       .  T
C291        N296   1.157       .  T
C292        N295   1.157       .  T
O301       Ni309   1.958       .  S
O301        C311   1.293       .  A
O302        C312   1.292       .  A
O303        C313   1.272       .  A
O304       Ni459   1.892   1_554  S
O304        C314   1.272       .  A
O305        C314   1.293       .  A
O306       Ni460   1.961   1_565  S
O306        C313   1.295       .  A
O307       Ni310   1.885   1_564  S
O307        C312   1.269       .  A
O308        C311   1.270       .  A
Ni309       O454   1.892       .  S
Ni310       O456   1.961   1_545  S
C311        C325   1.477       .  S
C312        C349   1.468       .  S
C313        C317   1.487       .  S
C314        C345   1.481       .  S
C315        C431   1.466       .  S
C315        N316   1.358       .  A
C315        N320   1.344       .  A
N316        C317   1.356       .  A
C317        N318   1.377       .  A
N318        C319   1.372       .  A
C319        C364   1.482       .  S
C319        N320   1.338       .  A
C321        C436   1.465       .  S
C321        N322   1.347       .  A
C321        N326   1.358       .  A
N322        C323   1.337       .  A
C323        C366   1.466       .  S
C323        N324   1.367       .  A
N324        C325   1.377       .  A
C325        N326   1.357       .  A
O327       Ni335   1.970       .  S
O327        C337   1.299       .  A
O328       Ni935   1.931       .  S
O328        C338   1.293       .  A
O329       Ni935   1.922       .  S
O329        C339   1.274       .  A
O330       Ni335   1.881       .  S
O330        C340   1.265       .  A
O331       Ni936   1.956       .  S
O331        C340   1.294       .  A
O332       Ni336   1.993       .  S
O332        C339   1.304       .  A
O333       Ni336   1.904       .  S
O333        C338   1.270       .  A
O334       Ni936   1.938       .  S
O334        C337   1.278       .  A
Ni335       O928   1.931   1_455  S
Ni335       O929   1.922   1_455  S
Ni335      Ni936   2.380       .  S
Ni336       O931   1.956       .  S
Ni336       O934   1.938       .  S
Ni336      Ni935   2.380       .  S
C337        C377   1.517       .  S
C338        C343   1.473       .  S
C339        C369   1.525       .  S
C340        C351   1.461       .  S
C341        C407   1.461       .  S
C341        N342   1.343       .  A
C341        N346   1.361       .  A
N342        C343   1.335       .  A
C343        N344   1.366       .  A
N344        C345   1.373       .  A
C345        N346   1.360       .  A
C347        C412   1.468       .  S
C347        N348   1.356       .  A
C347        N352   1.350       .  A
N348        C349   1.354       .  A
C349        N350   1.373       .  A
N350        C351   1.364       .  A
C351        N352   1.337       .  A
O353       Ni361   1.969       .  S
O353        C363   1.300       .  A
O354       Ni361   1.936       .  S
O354        C364   1.294       .  A
O355       Ni361   1.918       .  S
O355        C365   1.273       .  A
O356       Ni361   1.887       .  S
O356        C366   1.265       .  A
O357       Ni362   1.959       .  S
O357        C366   1.296       .  A
O358       Ni362   1.990       .  S
O358        C365   1.303       .  A
O359       Ni362   1.913       .  S
O359        C364   1.271       .  A
O360       Ni362   1.943       .  S
O360        C363   1.278       .  A
Ni361      Ni362   2.379       .  S
C363        C371   1.521       .  S
C365        C375   1.517       .  S
C367        C388   1.478       .  S
C367        N368   1.362       .  A
C367        N372   1.353       .  A
N368        C369   1.361       .  A
C369        N370   1.393       .  A
N370        C371   1.386       .  A
C371        N372   1.341       .  A
C373        C383   1.486       .  S
C373        N374   1.361       .  A
C373        N378   1.356       .  A
N374        C375   1.361       .  A
C375        N376   1.390       .  A
N376        C377   1.385       .  A
C377        N378   1.343       .  A
C379        C380   1.418       .  A
C379        C384   1.402       .  A
C379        C393   1.442       .  S
C380        C381   1.412       .  A
C381        C382   1.400       .  A
C381        H400   1.084   1_565  S
C382        C383   1.404       .  A
C382        C394   1.441       .  S
C383        C384   1.405       .  A
C384        H399   1.084       .  S
C385        C386   1.406       .  A
C385        C390   1.426       .  A
C386        C387   1.397       .  A
C386        H401   1.078       .  S
C387        C388   1.410       .  A
C387        C391   1.444       .  S
C388        C389   1.398       .  A
C389        C390   1.398       .  A
C389        H402   1.084       .  S
C390        C392   1.444       .  S
C391        N395   1.157       .  T
C392        N396   1.157       .  T
C393        N398   1.158       .  T
C394        N397   1.157       .  T
C403        C404   1.390       .  A
C403        C408   1.380       .  A
C403        C417   1.447       .  S
C404        C409   1.455       .  S
C404        C405   1.414       .  A
C405        C406   1.392       .  A
C405        H424   1.085       .  S
C406        C407   1.397       .  A
C406        C418   1.443       .  S
C407        C408   1.417       .  A
C408        H423   1.081       .  S
C409        C410   1.404       .  A
C409        C414   1.400       .  A
C410        C411   1.393       .  A
C410        H425   1.085       .  S
C411        C412   1.407       .  A
C411        C415   1.443       .  S
C412        C413   1.404       .  A
C413        C414   1.380       .  A
C413        H426   1.078       .  S
C414        C416   1.447       .  S
C415        N419   1.157       .  T
C416        N420   1.157       .  T
C417        N422   1.157       .  T
C418        N421   1.157       .  T
C427        C428   1.397       .  A
C427        C432   1.381       .  A
C427        C441   1.447       .  S
C428       C1033   1.467   1_455  S
C428        C429   1.415       .  A
C429        C430   1.390       .  A
C429        H448   1.084   1_455  S
C430        C431   1.400       .  A
C430        C442   1.444       .  S
C431        C432   1.417       .  A
C432        H447   1.081       .  S
C433       C1028   1.467       .  S
C433        C434   1.406       .  A
C433        C438   1.402       .  A
C434        C435   1.390       .  A
C434        H449   1.082       .  S
C435        C436   1.403       .  A
C435        C439   1.438       .  S
C436        C437   1.404       .  A
C437        C438   1.380       .  A
C437        H450   1.081       .  S
C438        C440   1.444       .  S
C439        N443   1.155       .  T
C440        N444   1.156       .  T
C441        N446   1.157       .  T
C442        N445   1.157       .  T
O451       Ni459   1.958       .  S
O451        C461   1.293       .  A
O452        C462   1.292       .  A
O453        C463   1.272       .  A
O454        C464   1.272       .  A
O455        C464   1.293       .  A
O456        C463   1.295       .  A
O457       Ni460   1.885   1_565  S
O457        C462   1.269       .  A
O458        C461   1.270       .  A
C461        C475   1.477       .  S
C462        C499   1.468       .  S
C463        C467   1.487       .  S
C464        C495   1.481       .  S
C465        C581   1.466       .  S
C465        N466   1.358       .  A
C465        N470   1.344       .  A
N466        C467   1.356       .  A
C467        N468   1.377       .  A
N468        C469   1.372       .  A
C469        C514   1.482       .  S
C469        N470   1.338       .  A
C471        C586   1.465       .  S
C471        N472   1.347       .  A
C471        N476   1.358       .  A
N472        C473   1.337       .  A
C473        C516   1.466       .  S
C473        N474   1.367       .  A
N474        C475   1.377       .  A
C475        N476   1.357       .  A
O477       Ni485   1.970       .  S
O477        C487   1.299       .  A
O478      Ni1085   1.931       .  S
O478        C488   1.293       .  A
O479      Ni1085   1.922       .  S
O479        C489   1.274       .  A
O480       Ni485   1.881       .  S
O480        C490   1.265       .  A
O481      Ni1086   1.956       .  S
O481        C490   1.294       .  A
O482       Ni486   1.993       .  S
O482        C489   1.304       .  A
O483       Ni486   1.904       .  S
O483        C488   1.270       .  A
O484      Ni1086   1.938       .  S
O484        C487   1.278       .  A
Ni485      O1078   1.931   1_455  S
Ni485      O1079   1.922   1_455  S
Ni485     Ni1086   2.380       .  S
Ni486      O1081   1.956       .  S
Ni486      O1084   1.938       .  S
Ni486     Ni1085   2.380       .  S
C487        C527   1.517       .  S
C488        C493   1.473       .  S
C489        C519   1.525       .  S
C490        C501   1.461       .  S
C491        C557   1.461       .  S
C491        N492   1.343       .  A
C491        N496   1.361       .  A
N492        C493   1.335       .  A
C493        N494   1.366       .  A
N494        C495   1.373       .  A
C495        N496   1.360       .  A
C497        C562   1.468       .  S
C497        N498   1.356       .  A
C497        N502   1.350       .  A
N498        C499   1.354       .  A
C499        N500   1.373       .  A
N500        C501   1.364       .  A
C501        N502   1.337       .  A
O503       Ni511   1.969       .  S
O503        C513   1.300       .  A
O504       Ni511   1.936       .  S
O504        C514   1.294       .  A
O505       Ni511   1.918       .  S
O505        C515   1.273       .  A
O506       Ni511   1.887       .  S
O506        C516   1.265       .  A
O507       Ni512   1.959       .  S
O507        C516   1.296       .  A
O508       Ni512   1.990       .  S
O508        C515   1.303       .  A
O509       Ni512   1.913       .  S
O509        C514   1.271       .  A
O510       Ni512   1.943       .  S
O510        C513   1.278       .  A
Ni511      Ni512   2.379       .  S
C513        C521   1.521       .  S
C515        C525   1.517       .  S
C517        C538   1.478       .  S
C517        N518   1.362       .  A
C517        N522   1.353       .  A
N518        C519   1.361       .  A
C519        N520   1.393       .  A
N520        C521   1.386       .  A
C521        N522   1.341       .  A
C523        C533   1.486       .  S
C523        N524   1.361       .  A
C523        N528   1.356       .  A
N524        C525   1.361       .  A
C525        N526   1.390       .  A
N526        C527   1.385       .  A
C527        N528   1.343       .  A
C529        C530   1.418       .  A
C529        C534   1.402       .  A
C529        C543   1.442       .  S
C530        C531   1.412       .  A
C531        C532   1.400       .  A
C531        H550   1.084   1_565  S
C532        C533   1.404       .  A
C532        C544   1.441       .  S
C533        C534   1.405       .  A
C534        H549   1.084       .  S
C535        C536   1.406       .  A
C535        C540   1.426       .  A
C536        C537   1.397       .  A
C536        H551   1.078       .  S
C537        C538   1.410       .  A
C537        C541   1.444       .  S
C538        C539   1.398       .  A
C539        C540   1.398       .  A
C539        H552   1.084       .  S
C540        C542   1.444       .  S
C541        N545   1.157       .  T
C542        N546   1.157       .  T
C543        N548   1.158       .  T
C544        N547   1.157       .  T
C553        C554   1.390       .  A
C553        C558   1.380       .  A
C553        C567   1.447       .  S
C554        C559   1.455       .  S
C554        C555   1.414       .  A
C555        C556   1.392       .  A
C555        H574   1.085       .  S
C556        C557   1.397       .  A
C556        C568   1.443       .  S
C557        C558   1.417       .  A
C558        H573   1.081       .  S
C559        C560   1.404       .  A
C559        C564   1.400       .  A
C560        C561   1.393       .  A
C560        H575   1.085       .  S
C561        C562   1.407       .  A
C561        C565   1.443       .  S
C562        C563   1.404       .  A
C563        C564   1.380       .  A
C563        H576   1.078       .  S
C564        C566   1.447       .  S
C565        N569   1.157       .  T
C566        N570   1.157       .  T
C567        N572   1.157       .  T
C568        N571   1.157       .  T
C577        C578   1.397       .  A
C577        C582   1.381       .  A
C577        C591   1.447       .  S
C578       C1183   1.467   1_455  S
C578        C579   1.415       .  A
C579        C580   1.390       .  A
C579        H598   1.084   1_455  S
C580        C581   1.400       .  A
C580        C592   1.444       .  S
C581        C582   1.417       .  A
C582        H597   1.081       .  S
C583       C1178   1.467       .  S
C583        C584   1.406       .  A
C583        C588   1.402       .  A
C584        C585   1.390       .  A
C584        H599   1.082       .  S
C585        C586   1.403       .  A
C585        C589   1.438       .  S
C586        C587   1.404       .  A
C587        C588   1.380       .  A
C587        H600   1.081       .  S
C588        C590   1.444       .  S
C589        N593   1.155       .  T
C590        N594   1.156       .  T
C591        N596   1.157       .  T
C592        N595   1.157       .  T
O601       Ni609   1.958       .  S
O601        C611   1.293       .  A
O602      Ni1059   1.951   1_554  S
O602        C612   1.292       .  A
O603       Ni909   1.897       .  S
O603        C613   1.272       .  A
O604       Ni759   1.892   1_554  S
O604        C614   1.272       .  A
O605       Ni910   1.961   1_554  S
O605        C614   1.293       .  A
O606       Ni760   1.961       .  S
O606        C613   1.295       .  A
O607       Ni610   1.885   1_554  S
O607        C612   1.269       .  A
O608      Ni1060   1.892       .  S
O608        C611   1.270       .  A
Ni609      O1052   1.951   1_545  S
Ni609       O903   1.897   1_545  S
Ni609       O754   1.892       .  S
Ni609     Ni1060   2.388       .  S
Ni610       O905   1.961   1_556  S
Ni610       O756   1.961       .  S
Ni610      O1058   1.892       .  S
Ni610     Ni1059   2.388       .  S
C611        C625   1.477       .  S
C612        C649   1.468       .  S
C613        C617   1.487       .  S
C614        C645   1.481       .  S
C615        C731   1.466       .  S
C615        N616   1.358       .  A
C615        N620   1.344       .  A
N616        C617   1.356       .  A
C617        N618   1.377       .  A
N618        C619   1.372       .  A
C619        C664   1.482       .  S
C619        N620   1.338       .  A
C621        C736   1.465       .  S
C621        N622   1.347       .  A
C621        N626   1.358       .  A
N622        C623   1.337       .  A
C623        C666   1.466       .  S
C623        N624   1.367       .  A
N624        C625   1.377       .  A
C625        N626   1.357       .  A
O627       Ni635   1.970       .  S
O627        C637   1.299       .  A
O628        C638   1.293       .  A
O629        C639   1.274       .  A
O630       Ni635   1.881       .  S
O630        C640   1.265       .  A
O631        C640   1.294       .  A
O632       Ni636   1.993   1_655  S
O632        C639   1.304       .  A
O633       Ni636   1.904   1_655  S
O633        C638   1.270       .  A
O634        C637   1.278       .  A
C637        C677   1.517       .  S
C638        C643   1.473       .  S
C639        C669   1.525       .  S
C640        C651   1.461       .  S
C641        C707   1.461       .  S
C641        N642   1.343       .  A
C641        N646   1.361       .  A
N642        C643   1.335       .  A
C643        N644   1.366       .  A
N644        C645   1.373       .  A
C645        N646   1.360       .  A
C647        C712   1.468       .  S
C647        N648   1.356       .  A
C647        N652   1.350       .  A
N648        C649   1.354       .  A
C649        N650   1.373       .  A
N650        C651   1.364       .  A
C651        N652   1.337       .  A
O653       Ni661   1.969       .  S
O653        C663   1.300       .  A
O654       Ni661   1.936       .  S
O654        C664   1.294       .  A
O655       Ni661   1.918       .  S
O655        C665   1.273       .  A
O656       Ni661   1.887       .  S
O656        C666   1.265       .  A
O657       Ni662   1.959       .  S
O657        C666   1.296       .  A
O658       Ni662   1.990       .  S
O658        C665   1.303       .  A
O659       Ni662   1.913       .  S
O659        C664   1.271       .  A
O660       Ni662   1.943       .  S
O660        C663   1.278       .  A
Ni661      Ni662   2.379       .  S
C663        C671   1.521       .  S
C665        C675   1.517       .  S
C667        C688   1.478       .  S
C667        N668   1.362       .  A
C667        N672   1.353       .  A
N668        C669   1.361       .  A
C669        N670   1.393       .  A
N670        C671   1.386       .  A
C671        N672   1.341       .  A
C673        C683   1.486       .  S
C673        N674   1.361       .  A
C673        N678   1.356       .  A
N674        C675   1.361       .  A
C675        N676   1.390       .  A
N676        C677   1.385       .  A
C677        N678   1.343       .  A
C679        C680   1.418       .  A
C679        C684   1.402       .  A
C679        C693   1.442       .  S
C680        C985   1.497       .  S
C680        C681   1.412       .  A
C681        C682   1.400       .  A
C681        H700   1.084       .  S
C682        C683   1.404       .  A
C682        C694   1.441       .  S
C683        C684   1.405       .  A
C684        H699   1.084       .  S
C685        C980   1.497   1_545  S
C685        C686   1.406       .  A
C685        C690   1.426       .  A
C686        C687   1.397       .  A
C686        H701   1.078       .  S
C687        C688   1.410       .  A
C687        C691   1.444       .  S
C688        C689   1.398       .  A
C689        C690   1.398       .  A
C689        H702   1.084       .  S
C690        C692   1.444   1_545  S
C691        N695   1.157       .  T
C692        N696   1.157       .  T
C693        N698   1.158       .  T
C694        N697   1.157       .  T
C703        C704   1.390       .  A
C703        C708   1.380       .  A
C703        C717   1.447       .  S
C704        C709   1.455       .  S
C704        C705   1.414       .  A
C705        C706   1.392       .  A
C705        H724   1.085       .  S
C706        C707   1.397       .  A
C706        C718   1.443       .  S
C707        C708   1.417       .  A
C708        H723   1.081       .  S
C709        C710   1.404       .  A
C709        C714   1.400       .  A
C710        C711   1.393       .  A
C710        H725   1.085       .  S
C711        C712   1.407       .  A
C711        C715   1.443       .  S
C712        C713   1.404       .  A
C713        C714   1.380       .  A
C713        H726   1.078       .  S
C714        C716   1.447       .  S
C715        N719   1.157       .  T
C716        N720   1.157       .  T
C717        N722   1.157       .  T
C718        N721   1.157       .  T
C727        C728   1.397       .  A
C727        C732   1.381       .  A
C727        C741   1.447       .  S
C728        C729   1.415       .  A
C729        C730   1.390       .  A
C729        H748   1.084       .  S
C730        C731   1.400       .  A
C730        C742   1.444       .  S
C731        C732   1.417       .  A
C732        H747   1.081       .  S
C733        C734   1.406       .  A
C733        C738   1.402       .  A
C734        C735   1.390       .  A
C734        H749   1.082       .  S
C735        C736   1.403       .  A
C735        C739   1.438       .  S
C736        C737   1.404       .  A
C737        C738   1.380       .  A
C737        H750   1.081       .  S
C738        C740   1.444       .  S
C739        N743   1.155       .  T
C740        N744   1.156   1_655  T
C741        N746   1.157       .  T
C742        N745   1.157       .  T
O751       Ni759   1.958       .  S
O751        C761   1.293       .  A
O752       Ni909   1.951       .  S
O752        C762   1.292       .  A
O753      Ni1059   1.897       .  S
O753        C763   1.272       .  A
O754        C764   1.272       .  A
O755      Ni1060   1.961       .  S
O755        C764   1.293       .  A
O756        C763   1.295       .  A
O757       Ni760   1.885       .  S
O757        C762   1.269       .  A
O758       Ni910   1.892       .  S
O758        C761   1.270       .  A
Ni759       O902   1.951   1_546  S
Ni759      O1053   1.897   1_545  S
Ni759      Ni910   2.388       .  S
Ni760      O1055   1.961       .  S
Ni760       O908   1.892       .  S
Ni760      Ni909   2.388       .  S
C761        C775   1.477       .  S
C762        C799   1.468       .  S
C763        C767   1.487       .  S
C764        C795   1.481       .  S
C765        C881   1.466       .  S
C765        N766   1.358       .  A
C765        N770   1.344       .  A
N766        C767   1.356       .  A
C767        N768   1.377       .  A
N768        C769   1.372       .  A
C769        C814   1.482       .  S
C769        N770   1.338       .  A
C771        C886   1.465       .  S
C771        N772   1.347       .  A
C771        N776   1.358       .  A
N772        C773   1.337       .  A
C773        C816   1.466       .  S
C773        N774   1.367       .  A
N774        C775   1.377       .  A
C775        N776   1.357       .  A
O777       Ni785   1.970       .  S
O777        C787   1.299       .  A
O778        C788   1.293       .  A
O779        C789   1.274       .  A
O780       Ni785   1.881       .  S
O780        C790   1.265       .  A
O781        C790   1.294       .  A
O782       Ni786   1.993   1_655  S
O782        C789   1.304       .  A
O783       Ni786   1.904   1_655  S
O783        C788   1.270       .  A
O784        C787   1.278       .  A
C787        C827   1.517       .  S
C788        C793   1.473       .  S
C789        C819   1.525       .  S
C790        C801   1.461       .  S
C791        C857   1.461       .  S
C791        N792   1.343       .  A
C791        N796   1.361       .  A
N792        C793   1.335       .  A
C793        N794   1.366       .  A
N794        C795   1.373       .  A
C795        N796   1.360       .  A
C797        C862   1.468       .  S
C797        N798   1.356       .  A
C797        N802   1.350       .  A
N798        C799   1.354       .  A
C799        N800   1.373       .  A
N800        C801   1.364       .  A
C801        N802   1.337       .  A
O803       Ni811   1.969       .  S
O803        C813   1.300       .  A
O804       Ni811   1.936       .  S
O804        C814   1.294       .  A
O805       Ni811   1.918       .  S
O805        C815   1.273       .  A
O806       Ni811   1.887       .  S
O806        C816   1.265       .  A
O807       Ni812   1.959       .  S
O807        C816   1.296       .  A
O808       Ni812   1.990       .  S
O808        C815   1.303       .  A
O809       Ni812   1.913       .  S
O809        C814   1.271       .  A
O810       Ni812   1.943       .  S
O810        C813   1.278       .  A
Ni811      Ni812   2.379       .  S
C813        C821   1.521       .  S
C815        C825   1.517       .  S
C817        C838   1.478       .  S
C817        N818   1.362       .  A
C817        N822   1.353       .  A
N818        C819   1.361       .  A
C819        N820   1.393       .  A
N820        C821   1.386       .  A
C821        N822   1.341       .  A
C823        C833   1.486       .  S
C823        N824   1.361       .  A
C823        N828   1.356       .  A
N824        C825   1.361       .  A
C825        N826   1.390       .  A
N826        C827   1.385       .  A
C827        N828   1.343       .  A
C829        C830   1.418       .  A
C829        C834   1.402       .  A
C829        C843   1.442       .  S
C830       C1135   1.497       .  S
C830        C831   1.412       .  A
C831        C832   1.400       .  A
C831        H850   1.084       .  S
C832        C833   1.404       .  A
C832        C844   1.441       .  S
C833        C834   1.405       .  A
C834        H849   1.084       .  S
C835       C1130   1.497   1_545  S
C835        C836   1.406       .  A
C835        C840   1.426       .  A
C836        C837   1.397       .  A
C836        H851   1.078       .  S
C837        C838   1.410       .  A
C837        C841   1.444       .  S
C838        C839   1.398       .  A
C839        C840   1.398       .  A
C839        H852   1.084       .  S
C840        C842   1.444   1_545  S
C841        N845   1.157       .  T
C842        N846   1.157       .  T
C843        N848   1.158       .  T
C844        N847   1.157       .  T
C853        C854   1.390       .  A
C853        C858   1.380       .  A
C853        C867   1.447       .  S
C854        C859   1.455       .  S
C854        C855   1.414       .  A
C855        C856   1.392       .  A
C855        H874   1.085       .  S
C856        C857   1.397       .  A
C856        C868   1.443       .  S
C857        C858   1.417       .  A
C858        H873   1.081       .  S
C859        C860   1.404       .  A
C859        C864   1.400       .  A
C860        C861   1.393       .  A
C860        H875   1.085       .  S
C861        C862   1.407       .  A
C861        C865   1.443       .  S
C862        C863   1.404       .  A
C863        C864   1.380       .  A
C863        H876   1.078       .  S
C864        C866   1.447       .  S
C865        N869   1.157       .  T
C866        N870   1.157       .  T
C867        N872   1.157       .  T
C868        N871   1.157       .  T
C877        C878   1.397       .  A
C877        C882   1.381       .  A
C877        C891   1.447       .  S
C878        C879   1.415       .  A
C879        C880   1.390       .  A
C879        H898   1.084       .  S
C880        C881   1.400       .  A
C880        C892   1.444       .  S
C881        C882   1.417       .  A
C882        H897   1.081       .  S
C883        C884   1.406       .  A
C883        C888   1.402       .  A
C884        C885   1.390       .  A
C884        H899   1.082       .  S
C885        C886   1.403       .  A
C885        C889   1.438       .  S
C886        C887   1.404       .  A
C887        C888   1.380       .  A
C887        H900   1.081       .  S
C888        C890   1.444       .  S
C889        N893   1.155       .  T
C890        N894   1.156   1_655  T
C891        N896   1.157       .  T
C892        N895   1.157       .  T
O901       Ni909   1.958       .  S
O901        C911   1.293       .  A
O902        C912   1.292       .  A
O903        C913   1.272       .  A
O904      Ni1059   1.892   1_554  S
O904        C914   1.272       .  A
O905        C914   1.293       .  A
O906      Ni1060   1.961   1_565  S
O906        C913   1.295       .  A
O907       Ni910   1.885   1_564  S
O907        C912   1.269       .  A
O908        C911   1.270       .  A
Ni909      O1054   1.892       .  S
Ni910      O1056   1.961   1_545  S
C911        C925   1.477       .  S
C912        C949   1.468       .  S
C913        C917   1.487       .  S
C914        C945   1.481       .  S
C915       C1031   1.466       .  S
C915        N916   1.358       .  A
C915        N920   1.344       .  A
N916        C917   1.356       .  A
C917        N918   1.377       .  A
N918        C919   1.372       .  A
C919        C964   1.482       .  S
C919        N920   1.338       .  A
C921       C1036   1.465       .  S
C921        N922   1.347       .  A
C921        N926   1.358       .  A
N922        C923   1.337       .  A
C923        C966   1.466       .  S
C923        N924   1.367       .  A
N924        C925   1.377       .  A
C925        N926   1.357       .  A
O927       Ni935   1.970       .  S
O927        C937   1.299       .  A
O928        C938   1.293       .  A
O929        C939   1.274       .  A
O930       Ni935   1.881       .  S
O930        C940   1.265       .  A
O931        C940   1.294       .  A
O932       Ni936   1.993   1_655  S
O932        C939   1.304       .  A
O933       Ni936   1.904   1_655  S
O933        C938   1.270       .  A
O934        C937   1.278       .  A
C937        C977   1.517       .  S
C938        C943   1.473       .  S
C939        C969   1.525       .  S
C940        C951   1.461       .  S
C941       C1007   1.461       .  S
C941        N942   1.343       .  A
C941        N946   1.361       .  A
N942        C943   1.335       .  A
C943        N944   1.366       .  A
N944        C945   1.373       .  A
C945        N946   1.360       .  A
C947       C1012   1.468       .  S
C947        N948   1.356       .  A
C947        N952   1.350       .  A
N948        C949   1.354       .  A
C949        N950   1.373       .  A
N950        C951   1.364       .  A
C951        N952   1.337       .  A
O953       Ni961   1.969       .  S
O953        C963   1.300       .  A
O954       Ni961   1.936       .  S
O954        C964   1.294       .  A
O955       Ni961   1.918       .  S
O955        C965   1.273       .  A
O956       Ni961   1.887       .  S
O956        C966   1.265       .  A
O957       Ni962   1.959       .  S
O957        C966   1.296       .  A
O958       Ni962   1.990       .  S
O958        C965   1.303       .  A
O959       Ni962   1.913       .  S
O959        C964   1.271       .  A
O960       Ni962   1.943       .  S
O960        C963   1.278       .  A
Ni961      Ni962   2.379       .  S
C963        C971   1.521       .  S
C965        C975   1.517       .  S
C967        C988   1.478       .  S
C967        N968   1.362       .  A
C967        N972   1.353       .  A
N968        C969   1.361       .  A
C969        N970   1.393       .  A
N970        C971   1.386       .  A
C971        N972   1.341       .  A
C973        C983   1.486       .  S
C973        N974   1.361       .  A
C973        N978   1.356       .  A
N974        C975   1.361       .  A
C975        N976   1.390       .  A
N976        C977   1.385       .  A
C977        N978   1.343       .  A
C979        C980   1.418       .  A
C979        C984   1.402       .  A
C979        C993   1.442       .  S
C980        C981   1.412       .  A
C981        C982   1.400       .  A
C981       H1000   1.084   1_565  S
C982        C983   1.404       .  A
C982        C994   1.441       .  S
C983        C984   1.405       .  A
C984        H999   1.084       .  S
C985        C986   1.406       .  A
C985        C990   1.426       .  A
C986        C987   1.397       .  A
C986       H1001   1.078       .  S
C987        C988   1.410       .  A
C987        C991   1.444       .  S
C988        C989   1.398       .  A
C989        C990   1.398       .  A
C989       H1002   1.084       .  S
C990        C992   1.444       .  S
C991        N995   1.157       .  T
C992        N996   1.157       .  T
C993        N998   1.158       .  T
C994        N997   1.157       .  T
C1003      C1004   1.390       .  A
C1003      C1008   1.380       .  A
C1003      C1017   1.447       .  S
C1004      C1009   1.455       .  S
C1004      C1005   1.414       .  A
C1005      C1006   1.392       .  A
C1005      H1024   1.085       .  S
C1006      C1007   1.397       .  A
C1006      C1018   1.443       .  S
C1007      C1008   1.417       .  A
C1008      H1023   1.081       .  S
C1009      C1010   1.404       .  A
C1009      C1014   1.400       .  A
C1010      C1011   1.393       .  A
C1010      H1025   1.085       .  S
C1011      C1012   1.407       .  A
C1011      C1015   1.443       .  S
C1012      C1013   1.404       .  A
C1013      C1014   1.380       .  A
C1013      H1026   1.078       .  S
C1014      C1016   1.447       .  S
C1015      N1019   1.157       .  T
C1016      N1020   1.157       .  T
C1017      N1022   1.157       .  T
C1018      N1021   1.157       .  T
C1027      C1028   1.397       .  A
C1027      C1032   1.381       .  A
C1027      C1041   1.447       .  S
C1028      C1029   1.415       .  A
C1029      C1030   1.390       .  A
C1029      H1048   1.084       .  S
C1030      C1031   1.400       .  A
C1030      C1042   1.444       .  S
C1031      C1032   1.417       .  A
C1032      H1047   1.081       .  S
C1033      C1034   1.406       .  A
C1033      C1038   1.402       .  A
C1034      C1035   1.390       .  A
C1034      H1049   1.082       .  S
C1035      C1036   1.403       .  A
C1035      C1039   1.438       .  S
C1036      C1037   1.404       .  A
C1037      C1038   1.380       .  A
C1037      H1050   1.081       .  S
C1038      C1040   1.444       .  S
C1039      N1043   1.155       .  T
C1040      N1044   1.156   1_655  T
C1041      N1046   1.157       .  T
C1042      N1045   1.157       .  T
O1051     Ni1059   1.958       .  S
O1051      C1061   1.293       .  A
O1052      C1062   1.292       .  A
O1053      C1063   1.272       .  A
O1054      C1064   1.272       .  A
O1055      C1064   1.293       .  A
O1056      C1063   1.295       .  A
O1057     Ni1060   1.885   1_565  S
O1057      C1062   1.269       .  A
O1058      C1061   1.270       .  A
C1061      C1075   1.477       .  S
C1062      C1099   1.468       .  S
C1063      C1067   1.487       .  S
C1064      C1095   1.481       .  S
C1065      C1181   1.466       .  S
C1065      N1066   1.358       .  A
C1065      N1070   1.344       .  A
N1066      C1067   1.356       .  A
C1067      N1068   1.377       .  A
N1068      C1069   1.372       .  A
C1069      C1114   1.482       .  S
C1069      N1070   1.338       .  A
C1071      C1186   1.465       .  S
C1071      N1072   1.347       .  A
C1071      N1076   1.358       .  A
N1072      C1073   1.337       .  A
C1073      C1116   1.466       .  S
C1073      N1074   1.367       .  A
N1074      C1075   1.377       .  A
C1075      N1076   1.357       .  A
O1077     Ni1085   1.970       .  S
O1077      C1087   1.299       .  A
O1078      C1088   1.293       .  A
O1079      C1089   1.274       .  A
O1080     Ni1085   1.881       .  S
O1080      C1090   1.265       .  A
O1081      C1090   1.294       .  A
O1082     Ni1086   1.993   1_655  S
O1082      C1089   1.304       .  A
O1083     Ni1086   1.904   1_655  S
O1083      C1088   1.270       .  A
O1084      C1087   1.278       .  A
C1087      C1127   1.517       .  S
C1088      C1093   1.473       .  S
C1089      C1119   1.525       .  S
C1090      C1101   1.461       .  S
C1091      C1157   1.461       .  S
C1091      N1092   1.343       .  A
C1091      N1096   1.361       .  A
N1092      C1093   1.335       .  A
C1093      N1094   1.366       .  A
N1094      C1095   1.373       .  A
C1095      N1096   1.360       .  A
C1097      C1162   1.468       .  S
C1097      N1098   1.356       .  A
C1097      N1102   1.350       .  A
N1098      C1099   1.354       .  A
C1099      N1100   1.373       .  A
N1100      C1101   1.364       .  A
C1101      N1102   1.337       .  A
O1103     Ni1111   1.969       .  S
O1103      C1113   1.300       .  A
O1104     Ni1111   1.936       .  S
O1104      C1114   1.294       .  A
O1105     Ni1111   1.918       .  S
O1105      C1115   1.273       .  A
O1106     Ni1111   1.887       .  S
O1106      C1116   1.265       .  A
O1107     Ni1112   1.959       .  S
O1107      C1116   1.296       .  A
O1108     Ni1112   1.990       .  S
O1108      C1115   1.303       .  A
O1109     Ni1112   1.913       .  S
O1109      C1114   1.271       .  A
O1110     Ni1112   1.943       .  S
O1110      C1113   1.278       .  A
Ni1111    Ni1112   2.379       .  S
C1113      C1121   1.521       .  S
C1115      C1125   1.517       .  S
C1117      C1138   1.478       .  S
C1117      N1118   1.362       .  A
C1117      N1122   1.353       .  A
N1118      C1119   1.361       .  A
C1119      N1120   1.393       .  A
N1120      C1121   1.386       .  A
C1121      N1122   1.341       .  A
C1123      C1133   1.486       .  S
C1123      N1124   1.361       .  A
C1123      N1128   1.356       .  A
N1124      C1125   1.361       .  A
C1125      N1126   1.390       .  A
N1126      C1127   1.385       .  A
C1127      N1128   1.343       .  A
C1129      C1130   1.418       .  A
C1129      C1134   1.402       .  A
C1129      C1143   1.442       .  S
C1130      C1131   1.412       .  A
C1131      C1132   1.400       .  A
C1131      H1150   1.084   1_565  S
C1132      C1133   1.404       .  A
C1132      C1144   1.441       .  S
C1133      C1134   1.405       .  A
C1134      H1149   1.084       .  S
C1135      C1136   1.406       .  A
C1135      C1140   1.426       .  A
C1136      C1137   1.397       .  A
C1136      H1151   1.078       .  S
C1137      C1138   1.410       .  A
C1137      C1141   1.444       .  S
C1138      C1139   1.398       .  A
C1139      C1140   1.398       .  A
C1139      H1152   1.084       .  S
C1140      C1142   1.444       .  S
C1141      N1145   1.157       .  T
C1142      N1146   1.157       .  T
C1143      N1148   1.158       .  T
C1144      N1147   1.157       .  T
C1153      C1154   1.390       .  A
C1153      C1158   1.380       .  A
C1153      C1167   1.447       .  S
C1154      C1159   1.455       .  S
C1154      C1155   1.414       .  A
C1155      C1156   1.392       .  A
C1155      H1174   1.085       .  S
C1156      C1157   1.397       .  A
C1156      C1168   1.443       .  S
C1157      C1158   1.417       .  A
C1158      H1173   1.081       .  S
C1159      C1160   1.404       .  A
C1159      C1164   1.400       .  A
C1160      C1161   1.393       .  A
C1160      H1175   1.085       .  S
C1161      C1162   1.407       .  A
C1161      C1165   1.443       .  S
C1162      C1163   1.404       .  A
C1163      C1164   1.380       .  A
C1163      H1176   1.078       .  S
C1164      C1166   1.447       .  S
C1165      N1169   1.157       .  T
C1166      N1170   1.157       .  T
C1167      N1172   1.157       .  T
C1168      N1171   1.157       .  T
C1177      C1178   1.397       .  A
C1177      C1182   1.381       .  A
C1177      C1191   1.447       .  S
C1178      C1179   1.415       .  A
C1179      C1180   1.390       .  A
C1179      H1198   1.084       .  S
C1180      C1181   1.400       .  A
C1180      C1192   1.444       .  S
C1181      C1182   1.417       .  A
C1182      H1197   1.081       .  S
C1183      C1184   1.406       .  A
C1183      C1188   1.402       .  A
C1184      C1185   1.390       .  A
C1184      H1199   1.082       .  S
C1185      C1186   1.403       .  A
C1185      C1189   1.438       .  S
C1186      C1187   1.404       .  A
C1187      C1188   1.380       .  A
C1187      H1200   1.081       .  S
C1188      C1190   1.444       .  S
C1189      N1193   1.155       .  T
C1190      N1194   1.156   1_655  T
C1191      N1196   1.157       .  T
C1192      N1195   1.157       .  T
