geometry optimzed in LAMMPS
_audit_creation_date              2020-12-01 
_audit_creation_method            'lammps2cif' 
_symmetry_space_group_name_H-M    'P1' 
_symmetry_Int_Tables_number       1 
_symmetry_cell_setting            triclinic 
loop_ 
_symmetry_equiv_pos_as_xyz 
  x,y,z 
_cell_length_a                    47.16648751 
_cell_length_b                    47.1751811072607 
_cell_length_c                    38.33161481400452 
_cell_angle_alpha                 90.03025106189355 
_cell_angle_beta                  90.01041062165307 
_cell_angle_gamma                 120.53846302458736 
loop_ 
_atom_site_label 
_atom_site_type_symbol 
_atom_site_fract_x 
_atom_site_fract_y 
_atom_site_fract_z 
_atom_site_charge 
C1          C  0.01508639  0.48599682  0.12575278     0.81400
N2          N  0.03181368  0.01965043  0.12503082    -0.76900
C3          C  0.01540753  0.03662517  0.12500249     0.83900
N4          N  0.48168956  0.01939389  0.12555676    -0.76800
C5          C  0.46447381  0.48568747  0.12618976     0.84000
N6          N  0.48144941  0.46930411  0.12634154    -0.78500
C7          C  0.14784573  0.35325458  0.12397178     0.81400
N8          N  0.13116188  0.31946302  0.12414477    -0.76900
C9          C  0.14768485  0.30250242  0.12436368     0.83900
N10         N  0.18130656  0.31973348  0.12416433    -0.76800
C11         C  0.19860192  0.35334953  0.12380645     0.84000
N12         N  0.18167028  0.36992878  0.12385771    -0.78500
C13         C  0.31431374  0.28547977  0.02074974     0.81400
N14         N  0.32633564  0.29353913  0.48802625    -0.76900
C15         C  0.34122011  0.32523515  0.47707981     0.83900
N16         N  0.34465654  0.34920050  0.49969078    -0.76800
C17         C  0.33198683  0.34062753  0.03256604     0.84000
N18         N  0.31747336  0.30900755  0.04294519    -0.78500
Zn19       Zn  0.06374329  0.37233250  0.12409987     1.49700
Zn20       Zn  0.06503186  0.43460088  0.08431144     1.49400
Zn21       Zn  0.06591046  0.43505514  0.16594285     1.49100
Zn22       Zn  0.12802991  0.43669334  0.12543079     1.49500
O23         O  0.08052451  0.41975896  0.12492876    -1.82900
O24         O  0.03822520  0.35467527  0.07942808    -0.73500
O25         O  0.04113352  0.46011053  0.09660047    -0.73400
O26         O  0.03741696  0.39573423  0.19654870    -0.72900
O27         O  0.03523306  0.39567577  0.05400799    -0.73600
O28         O  0.03569050  0.35420145  0.16659363    -0.73200
O29         O  0.04074711  0.45946611  0.15441255    -0.73700
O30         O  0.14583936  0.46153506  0.17018245    -0.73100
O31         O  0.10436685  0.46331656  0.05375621    -0.73900
O32         O  0.10495336  0.46439018  0.19607640    -0.73300
O33         O  0.14610024  0.46544906  0.08368683    -0.73700
O34         O  0.14473174  0.40314913  0.12344697    -0.73600
O35         O  0.09779538  0.35611500  0.12504382    -0.73400
C36         C  0.02922990  0.36614199  0.05437930     0.78400
C37         C  0.03327388  0.46764088  0.12559009     0.78800
C38         C  0.02809452  0.36536073  0.19311501     0.77800
C39         C  0.13444590  0.47029555  0.19546848     0.78200
C40         C  0.13483201  0.47303526  0.05729576     0.79300
C41         C  0.12922688  0.37174195  0.12412873     0.78400
C42         C  0.17314002  0.01991482  0.47604024     0.81400
N43         N  0.14944274  0.50043687  0.49953214    -0.76900
C44         C  0.15857879  0.49357807  0.03068976     0.83900
N45         N  0.19083152  0.00729644  0.03859227    -0.76800
C46         C  0.21419287  0.02720795  0.01582112     0.84000
N47         N  0.20538577  0.03364355  0.48467609    -0.78500
C48         C  0.48096102  0.32690727  0.27433425     0.81400
N49         N  0.00050020  0.35065999  0.25089392    -0.76900
C50         C  0.00787461  0.34160931  0.21993038     0.83900
N51         N  0.49448783  0.30937063  0.21210623    -0.76800
C52         C  0.47447643  0.28596425  0.23477494     0.84000
N53         N  0.46766143  0.29471861  0.26575384    -0.78500
Zn54       Zn  0.29225530  0.15305107  0.11202564     1.49700
Zn55       Zn  0.36611684  0.20812723  0.11487901     1.49400
Zn56       Zn  0.33408403  0.16436377  0.17442918     1.49100
Zn57       Zn  0.34615742  0.13377655  0.11228348     1.49500
O58         O  0.33478970  0.16473847  0.12611807    -1.82900
O59         O  0.29596716  0.18518464  0.07683817    -0.73500
O60         O  0.39666822  0.23011875  0.15612317    -0.73400
O61         O  0.30985085  0.18515492  0.19059739    -0.72900
O62         O  0.34332089  0.22974937  0.09263708    -0.73600
O63         O  0.26874059  0.16011443  0.15233907    -0.73200
O64         O  0.37893331  0.18800514  0.19298921    -0.73700
O65         O  0.33581636  0.10168419  0.15248293    -0.73100
O66         O  0.39476403  0.20651472  0.07890834    -0.73900
O67         O  0.31180096  0.11905757  0.19014870    -0.73300
O68         O  0.39136872  0.15834613  0.09038814    -0.73700
O69         O  0.31568381  0.10605562  0.07484397    -0.73600
O70         O  0.27110354  0.10905664  0.08785404    -0.73400
C71         C  0.31658160  0.21577538  0.07510575     0.78400
C72         C  0.40041012  0.21663752  0.18326438     0.78800
C73         C  0.28155441  0.17757817  0.17964978     0.77800
C74         C  0.31796541  0.09743949  0.17934267     0.78200
C75         C  0.40448321  0.18616127  0.07480669     0.79300
C76         C  0.28538880  0.09639387  0.07111170     0.78400
Zn77       Zn  0.30123359  0.40191553  0.16358410     1.49700
Zn78       Zn  0.36166175  0.46678488  0.12423836     1.49400
Zn79       Zn  0.36238346  0.39956988  0.12796679     1.49100
Zn80       Zn  0.30225030  0.40142197  0.08562109     1.49500
O81         O  0.33271527  0.41799894  0.12511448    -1.82900
O82         O  0.31355389  0.43760709  0.19764621    -0.73500
O83         O  0.41162254  0.48225291  0.12482582    -0.73400
O84         O  0.35278799  0.37105669  0.17270938    -0.72900
O85         O  0.35114857  0.48275621  0.16959201    -0.73600
O86         O  0.30683854  0.36955868  0.18927313    -0.73200
O87         O  0.41191578  0.43543570  0.12776257    -0.73700
O88         O  0.31361678  0.37441122  0.05520110    -0.73100
O89         O  0.35227213  0.48637904  0.07941856    -0.73900
O90         O  0.35314221  0.37140025  0.08429408    -0.73300
O91         O  0.31138288  0.43963706  0.05769307    -0.73700
O92         O  0.25158807  0.37599057  0.09556360    -0.73600
O93         O  0.25133298  0.38118388  0.15267427    -0.73400
C94         C  0.33281318  0.46845823  0.19610745     0.78400
C95         C  0.42744628  0.46689479  0.12632278     0.78800
C96         C  0.32796947  0.36074082  0.19299739     0.77800
C97         C  0.33396245  0.36442550  0.05802535     0.78200
C98         C  0.33042241  0.47057531  0.05602226     0.79300
C99         C  0.23566232  0.37139248  0.12394650     0.78400
C100        C  0.30641320  0.02194995  0.23263010     0.81400
N101        N  0.31969520  0.02848415  0.26482338    -0.76900
C102        C  0.33696773  0.01454019  0.27660385     0.83900
N103        N  0.34186304  0.49439691  0.25484534    -0.76800
C104        C  0.32834304  0.48817564  0.22210902     0.84000
N105        N  0.31114453  0.00219357  0.21138363    -0.78500
C106        C  0.21415846  0.18676202  0.22987189     0.81400
N107        N  0.20562222  0.17360001  0.26208794    -0.76900
C108        C  0.17377681  0.15813900  0.27255794     0.83900
N109        N  0.15005488  0.15523441  0.24989756    -0.76800
C110        C  0.15912510  0.16921356  0.21758107     0.84000
N111        N  0.19091724  0.18426121  0.20768671    -0.78500
Zn112      Zn  0.09801584  0.19959200  0.08530854     1.49700
Zn113      Zn  0.09919220  0.19927163  0.16339156     1.49400
Zn114      Zn  0.03379016  0.13924058  0.12546038     1.49100
Zn115      Zn  0.10110998  0.13896456  0.12162151     1.49500
O116        O  0.08250528  0.16847775  0.12414254    -1.82900
O117        O  0.11901855  0.24959140  0.09595353    -0.73500
O118        O  0.06101746  0.19083400  0.19104530    -0.73400
O119        O  0.01710609  0.14900732  0.08014132    -0.72900
O120        O  0.12530437  0.24977305  0.15295064    -0.73600
O121        O  0.06178668  0.18695185  0.05173585    -0.73200
O122        O  0.01447787  0.14898587  0.17008900    -0.73700
O123        O  0.06555401  0.08931269  0.12251900    -0.73100
O124        O  0.12558926  0.18769048  0.19449385    -0.73900
O125        O  0.01863858  0.08937417  0.12571143    -0.73300
O126        O  0.12912683  0.14847014  0.16540731    -0.73700
O127        O  0.12935437  0.14829226  0.07665392    -0.73600
O128        O  0.13000513  0.19359461  0.05914358    -0.73400
C129        C  0.12950351  0.26547247  0.12449424     0.78400
C130        C  0.03015060  0.17141180  0.19296688     0.78800
C131        C  0.03099605  0.16733802  0.05351418     0.77800
C132        C  0.03410967  0.07365872  0.12435996     0.78200
C133        C  0.13565011  0.16740108  0.19181770     0.79300
C134        C  0.13906656  0.17260494  0.05574955     0.78400
C135        C  0.47608908  0.19211783  0.01721615     0.81400
N136        N  0.49572179  0.18734968  0.03862263    -0.76900
C137        C  0.01078748  0.17124261  0.02761341     0.83900
N138        N  0.00564760  0.15875117  0.49441917    -0.76800
C139        C  0.48549605  0.16356762  0.47255221     0.84000
N140        N  0.47065892  0.17991691  0.48459166    -0.78500
C141        C  0.48046012  0.01949848  0.37439916     0.81400
N142        N  0.01414790  0.03599339  0.37488578    -0.76900
C143        C  0.03082284  0.01928423  0.37494544     0.83900
N144        N  0.01348187  0.48568833  0.37444989    -0.76800
C145        C  0.47987996  0.46869129  0.37394732     0.84000
N146        N  0.46355049  0.48576857  0.37396214    -0.78500
Zn147      Zn  0.13280321  0.06936616  0.33382688     1.49700
Zn148      Zn  0.19363607  0.13129907  0.37417718     1.49400
Zn149      Zn  0.13293882  0.06809967  0.41629082     1.49100
Zn150      Zn  0.19322575  0.06720265  0.37534391     1.49500
O151        O  0.16281905  0.08391422  0.37484090    -1.82900
O152        O  0.14279541  0.10826985  0.30326020    -0.73500
O153        O  0.18461205  0.14811561  0.41795290    -0.73400
O154        O  0.08315657  0.04495838  0.40412357    -0.72900
O155        O  0.18593145  0.14992859  0.32993793    -0.73600
O156        O  0.08319999  0.04478264  0.34621210    -0.73200
O157        O  0.14516672  0.10667130  0.44883460    -0.73700
O158        O  0.18627526  0.04255978  0.41995694    -0.73100
O159        O  0.24394319  0.14768035  0.37470658    -0.73900
O160        O  0.14137065  0.03747093  0.44536545    -0.73300
O161        O  0.24364728  0.10091210  0.37327593    -0.73700
O162        O  0.18219620  0.03809815  0.33402991    -0.73600
O163        O  0.14269901  0.03999169  0.30372509    -0.73400
C164        C  0.16593510  0.13820512  0.30429257     0.78400
C165        C  0.16675036  0.13700242  0.44524994     0.78800
C166        C  0.06760406  0.03739298  0.37512893     0.77800
C167        C  0.16557771  0.03264708  0.44489308     0.78200
C168        C  0.25970233  0.13228936  0.37389572     0.79300
C169        C  0.16319681  0.03017716  0.30764512     0.78400
C170        C  0.19204952  0.21729467  0.48261432     0.81400
N171        N  0.18887972  0.19305691  0.46175353    -0.76900
C172        C  0.17157616  0.16127711  0.47193870     0.83900
N173        N  0.15657965  0.15339723  0.00395065    -0.76800
C174        C  0.16059110  0.17824517  0.02564910     0.84000
N175        N  0.17773849  0.20983625  0.01423624    -0.78500
C176        C  0.01456311  0.17724075  0.22319449     0.81400
N177        N  0.02991461  0.20885319  0.23465209    -0.76900
C178        C  0.02390587  0.21635591  0.26663327     0.83900
N179        N  0.00318791  0.19221905  0.28805470    -0.76800
C180        C  0.48761778  0.16059658  0.27757785     0.84000
N181        N  0.49340343  0.15254068  0.24504889    -0.78500
Zn182      Zn  0.39949199  0.10053576  0.33514877     1.49700
Zn183      Zn  0.46408425  0.10486049  0.37517667     1.49400
Zn184      Zn  0.40032262  0.10145299  0.41327671     1.49100
Zn185      Zn  0.39610896  0.03705310  0.37361264     1.49500
O186        O  0.41541219  0.08563311  0.37425770    -1.82900
O187        O  0.43632840  0.12595310  0.30231825    -0.73500
O188        O  0.48433748  0.13414954  0.41983549    -0.73400
O189        O  0.37291948  0.12411161  0.40287632    -0.72900
O190        O  0.48071115  0.13140109  0.32980643    -0.73600
O191        O  0.37595415  0.12710453  0.34550826    -0.73200
O192        O  0.43911901  0.13254850  0.43935239    -0.73700
O193        O  0.37018566  0.02073625  0.41918235    -0.73100
O194        O  0.47836140  0.06962719  0.37499366    -0.73900
O195        O  0.37579457  0.06504812  0.44688800    -0.73300
O196        O  0.43086778  0.02241169  0.37369589    -0.73700
O197        O  0.36651447  0.01650864  0.32936542    -0.73600
O198        O  0.36878337  0.06166760  0.30863195    -0.73400
C199        C  0.46700171  0.13660739  0.30366686     0.78400
C200        C  0.46959589  0.14262226  0.44187368     0.78800
C201        C  0.36643590  0.13332650  0.37417071     0.77800
C202        C  0.36528610  0.03441928  0.44554039     0.78200
C203        C  0.46232473  0.03813704  0.37435704     0.79300
C204        C  0.35836126  0.03107794  0.30679315     0.78400
C205        C  0.02622893  0.31575227  0.48078337     0.81400
N206        N  0.00501431  0.31783158  0.45902017    -0.76900
C207        C  0.48951040  0.33411015  0.46849003     0.83900
N208        N  0.49599613  0.34935200  0.00019512    -0.76800
C209        C  0.01671436  0.34627609  0.02272719     0.84000
N210        N  0.03209759  0.32997119  0.01252145    -0.78500
Zn211      Zn  0.20990126  0.36447469  0.35935572     1.49700
Zn212      Zn  0.13641823  0.34601787  0.36086244     1.49400
Zn213      Zn  0.15407178  0.29016304  0.36123632     1.49100
Zn214      Zn  0.16667772  0.33370031  0.42173698     1.49500
O215        O  0.16691213  0.33355087  0.37336932    -1.82900
O216        O  0.20775301  0.39389815  0.32367250    -0.73500
O217        O  0.10695008  0.31456870  0.32570922    -0.73400
O218        O  0.18459334  0.29152018  0.32518579    -0.72900
O219        O  0.16004404  0.39035362  0.33762835    -0.73600
O220        O  0.22982926  0.34006430  0.33614130    -0.73200
O221        O  0.10916533  0.26950151  0.33891498    -0.73700
O222        O  0.18755536  0.30994546  0.43911966    -0.73100
O223        O  0.10622497  0.33928380  0.40168248    -0.73900
O224        O  0.16240605  0.26781709  0.40219334    -0.73300
O225        O  0.12154336  0.31356249  0.43924504    -0.73700
O226        O  0.19161515  0.37888327  0.43770553    -0.73600
O227        O  0.23329420  0.39503578  0.40028883    -0.73400
C228        C  0.18727176  0.40370094  0.32102026     0.78400
C229        C  0.09644886  0.28405971  0.32272676     0.78800
C230        C  0.21498861  0.31201494  0.32098740     0.77800
C231        C  0.18035378  0.28154528  0.42901088     0.78200
C232        C  0.10131265  0.32191134  0.42901761     0.79300
C233        C  0.22024298  0.39964355  0.42732676     0.78400
Zn234      Zn  0.43098361  0.36627373  0.33294365     1.49700
Zn235      Zn  0.42921284  0.36663797  0.41520957     1.49400
Zn236      Zn  0.36739536  0.30540607  0.37493363     1.49100
Zn237      Zn  0.43169176  0.30606333  0.37424734     1.49500
O238        O  0.41487573  0.33637913  0.37434268    -1.82900
O239        O  0.45404965  0.41618989  0.34492374    -0.73500
O240        O  0.39026333  0.35654668  0.44544862    -0.73400
O241        O  0.35064661  0.31459367  0.33118021    -0.72900
O242        O  0.45381676  0.41630016  0.40280763    -0.73600
O243        O  0.39243335  0.35377989  0.30035323    -0.73200
O244        O  0.34874333  0.31270353  0.41950043    -0.73700
O245        O  0.39792987  0.25559541  0.37557720    -0.73100
O246        O  0.45838330  0.35700043  0.44598689    -0.73900
O247        O  0.35105953  0.25511251  0.37391416    -0.73300
O248        O  0.46002611  0.31705509  0.41633513    -0.73700
O249        O  0.45742727  0.31352043  0.33013182    -0.73600
O250        O  0.46198157  0.35796560  0.30419648    -0.73400
C251        C  0.46143568  0.43185033  0.37385849     0.78400
C252        C  0.36052568  0.33298457  0.44491214     0.78800
C253        C  0.36202384  0.33236455  0.30384971     0.77800
C254        C  0.36654689  0.23945086  0.37466958     0.78200
C255        C  0.46800341  0.33631628  0.44252913     0.79300
C256        C  0.46741930  0.33416407  0.30512042     0.78400
C257        C  0.28213346  0.30674058  0.26498603     0.81400
N258        N  0.30608556  0.30997035  0.28638422    -0.77300
C259        C  0.33804706  0.32757360  0.27682861     0.83900
N260        N  0.34639510  0.34281743  0.24497961    -0.76800
C261        C  0.32188609  0.33884682  0.22280839     0.84000
N262        N  0.29007757  0.32136953  0.23354180    -0.78500
C263        C  0.32457775  0.48600103  0.02558648     0.81400
N264        N  0.34932376  0.00789356  0.00419464    -0.76900
C265        C  0.34137758  0.01363181  0.47156165     0.83900
N266        N  0.30996747  0.49722989  0.46049082    -0.76800
C267        C  0.28583045  0.47575067  0.48134720     0.84000
N268        N  0.29315909  0.46985984  0.01346695    -0.78500
C269        C  0.18661928  0.47452816  0.26785163     0.81400
N270        N  0.18347314  0.49468881  0.29031324    -0.76900
C271        C  0.16592297  0.00908548  0.28157758     0.83900
N272        N  0.15055037  0.00255405  0.25001287    -0.76800
C273        C  0.15446141  0.48278394  0.22693295     0.84000
N274        N  0.17204937  0.46849093  0.23627966    -0.78500
C275        C  0.34783279  0.15155776  0.37412736     0.81400
N276        N  0.31410036  0.13472267  0.37392646    -0.76900
C277        C  0.29694826  0.15106211  0.37388439     0.83900
N278        N  0.31419184  0.18478713  0.37413694    -0.76800
C279        C  0.34791845  0.20221644  0.37439587     0.84000
N280        N  0.36444341  0.18526509  0.37434877    -0.78500
C281        C  0.25204247  0.29979514  0.28058723    -0.12100
C282        C  0.23304216  0.30308914  0.29833936    -0.13600
C283        C  0.23838202  0.42854151  0.44750953    -0.12100
C284        C  0.25661535  0.45162755  0.46502464    -0.13600
C285        C  0.19488112  0.43060480  0.29850715    -0.12100
C286        C  0.19575624  0.45239576  0.28165784    -0.13600
C287        C  0.07269964  0.31227094  0.44943212    -0.12100
C288        C  0.04972123  0.30904977  0.46593548    -0.13600
C289        C  0.06945292  0.26561447  0.30008646    -0.12100
C290        C  0.04721997  0.24646522  0.28216215    -0.13600
C291        C  0.19771505  0.24658810  0.46620783    -0.12100
C292        C  0.19228446  0.26446126  0.44903090    -0.13600
C293        C  0.26335092  0.18836185  0.19925581    -0.12100
C294        C  0.24418943  0.19263729  0.21536631    -0.13600
C295        C  0.29990344  0.04491838  0.21647812    -0.12100
C296        C  0.30525672  0.06805714  0.19901048    -0.13600
C297        C  0.43100026  0.19499858  0.05153330    -0.12100
C298        C  0.45292122  0.19855757  0.03303004    -0.13600
C299        C  0.42903252  0.23462353  0.20414656    -0.12100
C300        C  0.45195734  0.25460674  0.22082891    -0.13600
C301        C  0.26663398  0.07043920  0.04720713    -0.12100
C302        C  0.24592648  0.04911427  0.02942711    -0.13600
C303        C  0.30754696  0.25510372  0.03519665    -0.12100
C304        C  0.30946122  0.23510205  0.05250056    -0.13600
C305        C  0.01508589  0.48599678  0.62575258     0.81400
N306        N  0.03181310  0.01965038  0.62503081    -0.76900
C307        C  0.01540714  0.03662509  0.62500252     0.83900
N308        N  0.48168898  0.01939378  0.62555665    -0.76800
C309        C  0.46447324  0.48568747  0.62618960     0.84000
N310        N  0.48144896  0.46930399  0.62634130    -0.78500
C311        C  0.14784541  0.35325464  0.62397199     0.81400
N312        N  0.13116143  0.31946298  0.62414494    -0.76900
C313        C  0.14768440  0.30250239  0.62436393     0.83900
N314        N  0.18130608  0.31973339  0.62416469    -0.76800
C315        C  0.19860152  0.35334947  0.62380687     0.84000
N316        N  0.18166985  0.36992870  0.62385801    -0.78500
C317        C  0.31431294  0.28547960  0.52074964     0.81400
N318        N  0.32633638  0.29353936  0.98802633    -0.76900
C319        C  0.34122084  0.32523540  0.97707994     0.83900
N320        N  0.34465730  0.34920070  0.99969102    -0.76800
C321        C  0.33198597  0.34062739  0.53256577     0.84000
N322        N  0.31747248  0.30900742  0.54294502    -0.78500
Zn323      Zn  0.06374300  0.37233252  0.62409986     1.49700
Zn324      Zn  0.06503145  0.43460072  0.58431136     1.49400
Zn325      Zn  0.06591021  0.43505530  0.66594281     1.49100
Zn326      Zn  0.12802959  0.43669335  0.62543100     1.49500
O327        O  0.08052422  0.41975902  0.62492876    -1.82900
O328        O  0.03822472  0.35467509  0.57942824    -0.73500
O329        O  0.04113310  0.46011043  0.59660032    -0.73400
O330        O  0.03741689  0.39573441  0.69654868    -0.72900
O331        O  0.03523258  0.39567555  0.55400805    -0.73600
O332        O  0.03569045  0.35420161  0.66659367    -0.73200
O333        O  0.04074668  0.45946609  0.65441240    -0.73700
O334        O  0.14583906  0.46153511  0.67018269    -0.73100
O335        O  0.10436653  0.46331623  0.55375614    -0.73900
O336        O  0.10495311  0.46439045  0.69607643    -0.73300
O337        O  0.14609991  0.46544893  0.58368702    -0.73700
O338        O  0.14473144  0.40314917  0.62344724    -0.73600
O339        O  0.09779508  0.35611507  0.62504380    -0.73400
C340        C  0.02922936  0.36614161  0.55437945     0.78400
C341        C  0.03327342  0.46764080  0.62558992     0.78800
C342        C  0.02809454  0.36536099  0.69311509     0.77800
C343        C  0.13444561  0.47029572  0.69546866     0.78200
C344        C  0.13483164  0.47303497  0.55729581     0.79300
C345        C  0.12922648  0.37174193  0.62412888     0.78400
C346        C  0.17313994  0.01991526  0.97604020     0.81400
N347        N  0.14944296  0.50043752  0.99953226    -0.76900
C348        C  0.15857860  0.49357779  0.53068989     0.83900
N349        N  0.19083123  0.00729661  0.53859281    -0.76800
C350        C  0.21419273  0.02720828  0.51582184     0.84000
N351        N  0.20538585  0.03364358  0.98467564    -0.78500
C352        C  0.48096136  0.32690762  0.77433440     0.81400
N353        N  0.00050047  0.35066033  0.75089406    -0.76900
C354        C  0.00787476  0.34160954  0.71993046     0.83900
N355        N  0.49448807  0.30937092  0.71210641    -0.76800
C356        C  0.47447664  0.28596453  0.73477517     0.84000
N357        N  0.46766175  0.29471900  0.76575404    -0.78500
Zn358      Zn  0.29225495  0.15305184  0.61202651     1.49700
Zn359      Zn  0.36611660  0.20812778  0.61487950     1.49400
Zn360      Zn  0.33408354  0.16436457  0.67443015     1.49100
Zn361      Zn  0.34615686  0.13377719  0.61228443     1.49500
O362        O  0.33478932  0.16473920  0.62611902    -1.82900
O363        O  0.29596703  0.18518507  0.57683861    -0.73500
O364        O  0.39666823  0.23011929  0.65612349    -0.73400
O365        O  0.30985049  0.18515596  0.69059819    -0.72900
O366        O  0.34332067  0.22974993  0.59263753    -0.73600
O367        O  0.26874040  0.16011587  0.65233963    -0.73200
O368        O  0.37893288  0.18800597  0.69299002    -0.73700
O369        O  0.33581573  0.10168485  0.65248384    -0.73100
O370        O  0.39476346  0.20651484  0.57890862    -0.73900
O371        O  0.31180047  0.11905830  0.69014975    -0.73300
O372        O  0.39136810  0.15834634  0.59038893    -0.73700
O373        O  0.31568319  0.10605637  0.57484495    -0.73600
O374        O  0.27110290  0.10905720  0.58785536    -0.73400
C375        C  0.31658142  0.21577581  0.57510612     0.78400
C376        C  0.40040996  0.21663814  0.68326488     0.78800
C377        C  0.28155422  0.17757956  0.67965035     0.77800
C378        C  0.31796485  0.09744017  0.67934365     0.78200
C379        C  0.40448248  0.18616128  0.57480710     0.79300
C380        C  0.28538817  0.09639456  0.57111286     0.78400
Zn381      Zn  0.30123327  0.40191558  0.66358422     1.49700
Zn382      Zn  0.36166124  0.46678490  0.62423818     1.49400
Zn383      Zn  0.36238295  0.39956987  0.62796647     1.49100
Zn384      Zn  0.30224966  0.40142192  0.58562112     1.49500
O385        O  0.33271475  0.41799892  0.62511441    -1.82900
O386        O  0.31355357  0.43760732  0.69764621    -0.73500
O387        O  0.41162206  0.48225291  0.62482570    -0.73400
O388        O  0.35278782  0.37105684  0.67270908    -0.72900
O389        O  0.35114807  0.48275640  0.66959176    -0.73600
O390        O  0.30683858  0.36955898  0.68927332    -0.73200
O391        O  0.41191528  0.43543567  0.62776214    -0.73700
O392        O  0.31361595  0.37441106  0.55520102    -0.73100
O393        O  0.35227162  0.48637893  0.57941824    -0.73900
O394        O  0.35314157  0.37140023  0.58429373    -0.73300
O395        O  0.31138216  0.43963697  0.55769300    -0.73700
O396        O  0.25158753  0.37599059  0.59556386    -0.73600
O397        O  0.25133262  0.38118367  0.65267460    -0.73400
C398        C  0.33281277  0.46845849  0.69610730     0.78400
C399        C  0.42744578  0.46689466  0.62632252     0.78800
C400        C  0.32796952  0.36074115  0.69299738     0.77800
C401        C  0.33396168  0.36442540  0.55802511     0.78200
C402        C  0.33042180  0.47057517  0.55602206     0.79300
C403        C  0.23566188  0.37139238  0.62394685     0.78400
C404        C  0.30641301  0.02195035  0.73263031     0.81400
N405        N  0.31969486  0.02848423  0.76482365    -0.76900
C406        C  0.33696733  0.01454018  0.77660394     0.83900
N407        N  0.34186268  0.49439698  0.75484530    -0.76800
C408        C  0.32834277  0.48817599  0.72210889     0.84000
N409        N  0.31114442  0.00219413  0.71138358    -0.78500
C410        C  0.21415803  0.18676314  0.72987202     0.81400
N411        N  0.20562187  0.17360105  0.76208802    -0.76900
C412        C  0.17377635  0.15813952  0.77255792     0.83900
N413        N  0.15005437  0.15523456  0.74989743    -0.76800
C414        C  0.15912456  0.16921377  0.71758093     0.84000
N415        N  0.19091673  0.18426192  0.70768676    -0.78500
Zn416      Zn  0.09801533  0.19959202  0.58530856     1.49700
Zn417      Zn  0.09919148  0.19927155  0.66339149     1.49400
Zn418      Zn  0.03378953  0.13924049  0.62546041     1.49100
Zn419      Zn  0.10110933  0.13896447  0.62162147     1.49500
O420        O  0.08250464  0.16847768  0.62414249    -1.82900
O421        O  0.11901828  0.24959143  0.59595362    -0.73500
O422        O  0.06101675  0.19083383  0.69104515    -0.73400
O423        O  0.01710550  0.14900727  0.58014135    -0.72900
O424        O  0.12530360  0.24977296  0.65295079    -0.73600
O425        O  0.06178607  0.18695208  0.55173610    -0.73200
O426        O  0.01447713  0.14898572  0.67008896    -0.73700
O427        O  0.06555346  0.08931265  0.62251912    -0.73100
O428        O  0.12558854  0.18769042  0.69449373    -0.73900
O429        O  0.01863801  0.08937407  0.62571145    -0.73300
O430        O  0.12912628  0.14847017  0.66540721    -0.73700
O431        O  0.12935351  0.14829196  0.57665371    -0.73600
O432        O  0.13000431  0.19359431  0.55914329    -0.73400
C433        C  0.12950299  0.26547241  0.62449439     0.78400
C434        C  0.03014992  0.17141171  0.69296682     0.78800
C435        C  0.03099548  0.16733814  0.55351436     0.77800
C436        C  0.03410901  0.07365864  0.62436006     0.78200
C437        C  0.13564949  0.16740111  0.69181761     0.79300
C438        C  0.13906560  0.17260455  0.55574925     0.78400
C439        C  0.47608811  0.19211739  0.51721616     0.81400
N440        N  0.49572089  0.18734944  0.53862275    -0.76900
C441        C  0.01078692  0.17124265  0.52761354     0.83900
N442        N  0.00564790  0.15875098  0.99441906    -0.76800
C443        C  0.48549641  0.16356767  0.97255224     0.84000
N444        N  0.47065966  0.17991722  0.98459165    -0.78500
C445        C  0.48046008  0.01949881  0.87439930     0.81400
N446        N  0.01414798  0.03599395  0.87488599    -0.76900
C447        C  0.03082293  0.01928476  0.87494571     0.83900
N448        N  0.01348207  0.48568895  0.87445015    -0.76800
C449        C  0.47988019  0.46869178  0.87394752     0.84000
N450        N  0.46355058  0.48576894  0.87396227    -0.78500
Zn451      Zn  0.13280321  0.06936672  0.83382693     1.49700
Zn452      Zn  0.19363621  0.13129984  0.87417698     1.49400
Zn453      Zn  0.13293904  0.06810052  0.91629090     1.49100
Zn454      Zn  0.19322582  0.06720340  0.87534391     1.49500
O455        O  0.16281915  0.08391496  0.87484088    -1.82900
O456        O  0.14279525  0.10827033  0.80326015    -0.73500
O457        O  0.18461255  0.14811656  0.91795279    -0.73400
O458        O  0.08315678  0.04495936  0.90412378    -0.72900
O459        O  0.18593126  0.14992922  0.82993777    -0.73600
O460        O  0.08320009  0.04478322  0.84621230    -0.73200
O461        O  0.14516733  0.10667226  0.94883464    -0.73700
O462        O  0.18627529  0.04256055  0.91995698    -0.73100
O463        O  0.24394337  0.14768109  0.87470615    -0.73900
O464        O  0.14137069  0.03747168  0.94536556    -0.73300
O465        O  0.24364736  0.10091278  0.87327588    -0.73700
O466        O  0.18219616  0.03809870  0.83403002    -0.73600
O467        O  0.14269890  0.03999209  0.80372522    -0.73400
C468        C  0.16593488  0.13820566  0.80429255     0.78400
C469        C  0.16675097  0.13700333  0.94524999     0.78800
C470        C  0.06760419  0.03739374  0.87512916     0.77800
C471        C  0.16557783  0.03264780  0.94489314     0.78200
C472        C  0.25970243  0.13229023  0.87389548     0.79300
C473        C  0.16319665  0.03017754  0.80764524     0.78400
C474        C  0.19205075  0.21729552  0.98261504     0.81400
N475        N  0.18888076  0.19305781  0.96175394    -0.76900
C476        C  0.17157712  0.16127803  0.97193891     0.83900
N477        N  0.15657867  0.15339655  0.50395044    -0.76800
C478        C  0.16058997  0.17824458  0.52564867     0.84000
N479        N  0.17773725  0.20983560  0.51423551    -0.78500
C480        C  0.01456253  0.17724067  0.72319449     0.81400
N481        N  0.02991455  0.20885310  0.73465238    -0.76900
C482        C  0.02390609  0.21635573  0.76663371     0.83900
N483        N  0.00318791  0.19221890  0.78805502    -0.76800
C484        C  0.48761727  0.16059646  0.77757786     0.84000
N485        N  0.49340269  0.15254065  0.74504875    -0.78500
Zn486      Zn  0.39949159  0.10053574  0.83514888     1.49700
Zn487      Zn  0.46408395  0.10486055  0.87517662     1.49400
Zn488      Zn  0.40032262  0.10145335  0.91327686     1.49100
Zn489      Zn  0.39610875  0.03705319  0.87361279     1.49500
O490        O  0.41541192  0.08563322  0.87425781    -1.82900
O491        O  0.43632788  0.12595298  0.80231822    -0.73500
O492        O  0.48433744  0.13414959  0.91983533    -0.73400
O493        O  0.37291972  0.12411227  0.90287648    -0.72900
O494        O  0.48071066  0.13140102  0.82980636    -0.73600
O495        O  0.37595374  0.12710449  0.84550835    -0.73200
O496        O  0.43911915  0.13254866  0.93935260    -0.73700
O497        O  0.37018573  0.02073651  0.91918271    -0.73100
O498        O  0.47836115  0.06962741  0.87499360    -0.73900
O499        O  0.37579449  0.06504843  0.94688813    -0.73300
O500        O  0.43086761  0.02241184  0.87369603    -0.73700
O501        O  0.36651411  0.01650857  0.82936559    -0.73600
O502        O  0.36878298  0.06166753  0.80863217    -0.73400
C503        C  0.46700118  0.13660727  0.80366681     0.78400
C504        C  0.46959603  0.14262230  0.94187371     0.78800
C505        C  0.36643583  0.13332688  0.87417082     0.77800
C506        C  0.36528621  0.03441962  0.94554068     0.78200
C507        C  0.46232456  0.03813723  0.87435712     0.79300
C508        C  0.35836085  0.03107785  0.80679329     0.78400
C509        C  0.02622963  0.31575270  0.98078297     0.81400
N510        N  0.00501493  0.31783224  0.95901992    -0.76900
C511        C  0.48951119  0.33411071  0.96848973     0.83900
N512        N  0.49599540  0.34935145  0.50019533    -0.76800
C513        C  0.01671371  0.34627577  0.52272745     0.84000
N514        N  0.03209702  0.32997072  0.51252163    -0.78500
Zn515      Zn  0.20990202  0.36447525  0.85935580     1.49700
Zn516      Zn  0.13641888  0.34601790  0.86086224     1.49400
Zn517      Zn  0.15407267  0.29016330  0.86123702     1.49100
Zn518      Zn  0.16667844  0.33370084  0.92173717     1.49500
O519        O  0.16691294  0.33355125  0.87336949    -1.82900
O520        O  0.20775373  0.39389884  0.82367264    -0.73500
O521        O  0.10695097  0.31456847  0.82570908    -0.73400
O522        O  0.18459419  0.29152035  0.82518659    -0.72900
O523        O  0.16004438  0.39035361  0.83762807    -0.73600
O524        O  0.22982997  0.34006482  0.83614133    -0.73200
O525        O  0.10916618  0.26950143  0.83891571    -0.73700
O526        O  0.18755627  0.30994629  0.93912030    -0.73100
O527        O  0.10622547  0.33928376  0.90168211    -0.73900
O528        O  0.16240709  0.26781771  0.90219427    -0.73300
O529        O  0.12154407  0.31356299  0.93924515    -0.73700
O530        O  0.19161564  0.37888382  0.93770549    -0.73600
O531        O  0.23329491  0.39503625  0.90028908    -0.73400
C532        C  0.18727221  0.40370127  0.82102026     0.78400
C533        C  0.09644973  0.28405943  0.82272709     0.78800
C534        C  0.21498935  0.31201527  0.82098782     0.77800
C535        C  0.18035480  0.28154608  0.92901176     0.78200
C536        C  0.10131318  0.32191157  0.92901748     0.79300
C537        C  0.22024356  0.39964404  0.92732690     0.78400
Zn538      Zn  0.43098420  0.36627434  0.83294368     1.49700
Zn539      Zn  0.42921347  0.36663850  0.91520962     1.49400
Zn540      Zn  0.36739594  0.30540674  0.87493358     1.49100
Zn541      Zn  0.43169219  0.30606384  0.87424739     1.49500
O542        O  0.41487628  0.33637972  0.87434270    -1.82900
O543        O  0.45405013  0.41619046  0.84492385    -0.73500
O544        O  0.39026401  0.35654703  0.94544878    -0.73400
O545        O  0.35064729  0.31459447  0.83118020    -0.72900
O546        O  0.45381720  0.41630066  0.90280778    -0.73600
O547        O  0.39243402  0.35378060  0.80035314    -0.73200
O548        O  0.34874395  0.31270406  0.91950044    -0.73700
O549        O  0.39793028  0.25559593  0.87557737    -0.73100
O550        O  0.45838406  0.35700106  0.94598676    -0.73900
O551        O  0.35106000  0.25511315  0.87391396    -0.73300
O552        O  0.46002671  0.31705566  0.91633496    -0.73700
O553        O  0.45742752  0.31352084  0.83013187    -0.73600
O554        O  0.46198220  0.35796622  0.80419663    -0.73400
C555        C  0.46143609  0.43185090  0.87385864     0.78400
C556        C  0.36052638  0.33298496  0.94491223     0.78800
C557        C  0.36202446  0.33236527  0.80384969     0.77800
C558        C  0.36654708  0.23945144  0.87466956     0.78200
C559        C  0.46800414  0.33631694  0.94252899     0.79300
C560        C  0.46741973  0.33416455  0.80512053     0.78400
C561        C  0.28213401  0.30674089  0.76498616     0.81400
N562        N  0.30608616  0.30997085  0.78638429    -0.77300
C563        C  0.33804768  0.32757429  0.77682860     0.83900
N564        N  0.34639554  0.34281804  0.74497959    -0.76800
C565        C  0.32188643  0.33884727  0.72280839     0.84000
N566        N  0.29007790  0.32136977  0.73354194    -0.78500
C567        C  0.32457730  0.48600083  0.52558619     0.81400
N568        N  0.34932336  0.00789334  0.50419436    -0.76900
C569        C  0.34137781  0.01363221  0.97156200     0.83900
N570        N  0.30996765  0.49723034  0.96049141    -0.76800
C571        C  0.28583073  0.47575096  0.98134778     0.84000
N572        N  0.29315864  0.46985968  0.51346646    -0.78500
C573        C  0.18661901  0.47452839  0.76785188     0.81400
N574        N  0.18347290  0.49468908  0.79031349    -0.76900
C575        C  0.16592276  0.00908567  0.78157787     0.83900
N576        N  0.15055010  0.00255422  0.75001312    -0.76800
C577        C  0.15446110  0.48278408  0.72693316     0.84000
N578        N  0.17204907  0.46849107  0.73627994    -0.78500
C579        C  0.34783295  0.15155818  0.87412740     0.81400
N580        N  0.31410033  0.13472330  0.87392637    -0.76900
C581        C  0.29694849  0.15106265  0.87388418     0.83900
N582        N  0.31419201  0.18478785  0.87413677    -0.76800
C583        C  0.34791885  0.20221694  0.87439587     0.84000
N584        N  0.36444349  0.18526564  0.87434885    -0.78500
C585        C  0.25204302  0.29979536  0.78058749    -0.12100
C586        C  0.23304281  0.30308942  0.79833972    -0.13600
C587        C  0.23838253  0.42854189  0.94750983    -0.12100
C588        C  0.25661572  0.45162782  0.96502517    -0.13600
C589        C  0.19488138  0.43060517  0.79850726    -0.12100
C590        C  0.19575621  0.45239612  0.78165803    -0.13600
C591        C  0.07270021  0.31227124  0.94943190    -0.12100
C592        C  0.04972179  0.30905018  0.96593523    -0.13600
C593        C  0.06945372  0.26561394  0.80008695    -0.12100
C594        C  0.04722060  0.24646480  0.78216277    -0.13600
C595        C  0.19771627  0.24658907  0.96620881    -0.12100
C596        C  0.19228560  0.26446223  0.94903195    -0.13600
C597        C  0.26335087  0.18836352  0.69925619    -0.12100
C598        C  0.24418919  0.19263885  0.71536659    -0.13600
C599        C  0.29990312  0.04491885  0.71647864    -0.12100
C600        C  0.30525622  0.06805775  0.69901138    -0.13600
C601        C  0.43099928  0.19499820  0.55153341    -0.12100
C602        C  0.45292007  0.19855696  0.53303002    -0.13600
C603        C  0.42903248  0.23462400  0.70414689    -0.12100
C604        C  0.45195743  0.25460708  0.72082916    -0.13600
C605        C  0.26663338  0.07043994  0.54720826    -0.12100
C606        C  0.24592607  0.04911488  0.52942804    -0.13600
C607        C  0.30754643  0.25510373  0.53519672    -0.12100
C608        C  0.30946094  0.23510228  0.55250078    -0.13600
C609        C  0.01508641  0.98600088  0.12575111     0.81400
N610        N  0.03181552  0.51964632  0.12502405    -0.76900
C611        C  0.01541124  0.53662281  0.12499292     0.83900
N612        N  0.48169324  0.51939349  0.12555209    -0.76800
C613        C  0.46447179  0.98568762  0.12618716     0.84000
N614        N  0.48144931  0.96930606  0.12633564    -0.78500
C615        C  0.14784389  0.85325382  0.12397839     0.81400
N616        N  0.13115906  0.81946212  0.12415326    -0.76900
C617        C  0.14768135  0.80250060  0.12437038     0.83900
N618        N  0.18130310  0.81973103  0.12416599    -0.76800
C619        C  0.19859915  0.85334708  0.12380637     0.84000
N620        N  0.18166833  0.86992707  0.12386039    -0.78500
C621        C  0.31431085  0.78546961  0.02075059     0.81400
N622        N  0.32632928  0.79353106  0.48802605    -0.76900
C623        C  0.34121211  0.82522767  0.47708204     0.83900
N624        N  0.34464989  0.84919121  0.49969611    -0.76800
C625        C  0.33198458  0.84061650  0.03257254     0.84000
N626        N  0.31747282  0.80899603  0.04294979    -0.78500
Zn627      Zn  0.06374585  0.87233926  0.12410725     1.49700
Zn628      Zn  0.06503037  0.93460183  0.08430990     1.49400
Zn629      Zn  0.06592117  0.93507057  0.16594098     1.49100
Zn630      Zn  0.12803295  0.93669655  0.12542366     1.49500
O631        O  0.08052821  0.91976573  0.12492792    -1.82900
O632        O  0.03821990  0.85467379  0.07944010    -0.73500
O633        O  0.04113107  0.96011179  0.09659780    -0.73400
O634        O  0.03743173  0.89575653  0.19655872    -0.72900
O635        O  0.03522738  0.89567202  0.05401493    -0.73600
O636        O  0.03570017  0.85422010  0.16660630    -0.73200
O637        O  0.04075630  0.95947923  0.15440997    -0.73700
O638        O  0.14585118  0.96155101  0.17016650    -0.73100
O639        O  0.10436191  0.96331098  0.05374661    -0.73900
O640        O  0.10496952  0.96441291  0.19606215    -0.73300
O641        O  0.14609635  0.96544015  0.08367203    -0.73700
O642        O  0.14473265  0.90315008  0.12344760    -0.73600
O643        O  0.09779513  0.85611781  0.12505274    -0.73400
C644        C  0.02922194  0.86613748  0.05439065     0.78400
C645        C  0.03327637  0.96764725  0.12558751     0.78800
C646        C  0.02810754  0.86538235  0.19312767     0.77800
C647        C  0.13446180  0.97031779  0.19545080     0.78200
C648        C  0.13482648  0.97302500  0.05728151     0.79300
C649        C  0.12922655  0.87174296  0.12413452     0.78400
C650        C  0.17314708  0.51993376  0.47605896     0.81400
N651        N  0.14943553  0.00041766  0.49951324    -0.76900
C652        C  0.15857205  0.99356350  0.03067298     0.83900
N653        N  0.19083836  0.50730504  0.03860633    -0.76800
C654        C  0.21419993  0.52721491  0.01583416     0.84000
N655        N  0.20539294  0.53365603  0.48469161    -0.78500
C656        C  0.48096701  0.82692518  0.27434368     0.81400
N657        N  0.00050913  0.85068022  0.25090628    -0.76900
C658        C  0.00788727  0.84163149  0.21994345     0.83900
N659        N  0.49450116  0.80939348  0.21211731    -0.76800
C660        C  0.47448665  0.78598542  0.23478216     0.84000
N661        N  0.46766789  0.79473722  0.26576040    -0.78500
Zn662      Zn  0.29227927  0.65304906  0.11201794     1.49700
Zn663      Zn  0.36613698  0.70813586  0.11486947     1.49400
Zn664      Zn  0.33410989  0.66437506  0.17441950     1.49100
Zn665      Zn  0.34618818  0.63378525  0.11227477     1.49500
O666        O  0.33481628  0.66474491  0.12610851    -1.82900
O667        O  0.29598288  0.68517651  0.07682770    -0.73500
O668        O  0.39668622  0.73013432  0.15611461    -0.73400
O669        O  0.30986980  0.68516054  0.19058506    -0.72900
O670        O  0.34333121  0.72974776  0.09262696    -0.73600
O671        O  0.26876019  0.66010795  0.15232855    -0.73200
O672        O  0.37895730  0.68802236  0.19298164    -0.73700
O673        O  0.33585423  0.60169897  0.15248023    -0.73100
O674        O  0.39478778  0.70652913  0.07889954    -0.73900
O675        O  0.31183349  0.61907085  0.19014125    -0.73300
O676        O  0.39139778  0.65836163  0.09037300    -0.73700
O677        O  0.31571087  0.60605444  0.07483955    -0.73600
O678        O  0.27113010  0.60905271  0.08785410    -0.73400
C679        C  0.31659177  0.71576865  0.07509597     0.78400
C680        C  0.40043011  0.71665634  0.18325750     0.78800
C681        C  0.28157083  0.67757500  0.17963765     0.77800
C682        C  0.31800170  0.59745438  0.17933883     0.78200
C683        C  0.40450944  0.68617806  0.07479388     0.79300
C684        C  0.28541445  0.59638931  0.07111177     0.78400
Zn685      Zn  0.30123196  0.90191800  0.16357772     1.49700
Zn686      Zn  0.36165906  0.96678124  0.12422548     1.49400
Zn687      Zn  0.36238103  0.89956656  0.12796868     1.49100
Zn688      Zn  0.30224638  0.90141327  0.08561648     1.49500
O689        O  0.33271294  0.91799555  0.12510839    -1.82900
O690        O  0.31355568  0.93761362  0.19763464    -0.73500
O691        O  0.41161945  0.98224971  0.12481571    -0.73400
O692        O  0.35278429  0.87105914  0.17271669    -0.72900
O693        O  0.35114805  0.98276019  0.16957526    -0.73600
O694        O  0.30683301  0.86956138  0.18927214    -0.73200
O695        O  0.41191439  0.93543371  0.12776195    -0.73700
O696        O  0.31361407  0.87440016  0.05520394    -0.73100
O697        O  0.35226905  0.98636859  0.07940087    -0.73900
O698        O  0.35313834  0.87139005  0.08430097    -0.73300
O699        O  0.31137735  0.93962491  0.05768081    -0.73700
O700        O  0.25158377  0.87597980  0.09556076    -0.73600
O701        O  0.25133200  0.88118904  0.15266936    -0.73400
C702        C  0.33281452  0.96846466  0.19609253     0.78400
C703        C  0.42744412  0.96689282  0.12631789     0.78800
C704        C  0.32796405  0.86074441  0.19300215     0.77800
C705        C  0.33395871  0.86441355  0.05803172     0.78200
C706        C  0.33041829  0.97056287  0.05600617     0.79300
C707        C  0.23565958  0.87138954  0.12394347     0.78400
C708        C  0.30642260  0.52195469  0.23263566     0.81400
N709        N  0.31969556  0.52848187  0.26483295    -0.76900
C710        C  0.33695847  0.51452963  0.27661957     0.83900
N711        N  0.34187387  0.99441016  0.25482720    -0.76800
C712        C  0.32834655  0.98818343  0.22209424     0.84000
N713        N  0.31115167  0.50219510  0.21139217    -0.78500
C714        C  0.21415966  0.68674268  0.22985071     0.81400
N715        N  0.20562373  0.67358414  0.26206821    -0.76900
C716        C  0.17377884  0.65812685  0.27253965     0.83900
N717        N  0.15005718  0.65522366  0.24987958    -0.76800
C718        C  0.15912709  0.66919889  0.21756116     0.84000
N719        N  0.19091867  0.68424196  0.20766518    -0.78500
Zn720      Zn  0.09801830  0.69959554  0.08530439     1.49700
Zn721      Zn  0.09919080  0.69926307  0.16338642     1.49400
Zn722      Zn  0.03379138  0.63923594  0.12544655     1.49100
Zn723      Zn  0.10111226  0.63896351  0.12160142     1.49500
O724        O  0.08250628  0.66847502  0.12413236    -1.82900
O725        O  0.11901395  0.74959222  0.09595594    -0.73500
O726        O  0.06101318  0.69081876  0.19104081    -0.73400
O727        O  0.01710878  0.64900279  0.08012593    -0.72900
O728        O  0.12530260  0.74976767  0.15295202    -0.73600
O729        O  0.06179173  0.68695562  0.05173028    -0.73200
O730        O  0.01447478  0.64897587  0.17007518    -0.73700
O731        O  0.06555824  0.58931016  0.12249889    -0.73100
O732        O  0.12558795  0.68767671  0.19448373    -0.73900
O733        O  0.01864304  0.58937135  0.12569847    -0.73300
O734        O  0.12913203  0.64846619  0.16538390    -0.73700
O735        O  0.12935464  0.64829845  0.07663147    -0.73600
O736        O  0.13001351  0.69360904  0.05913732    -0.73400
C737        C  0.12949963  0.76547030  0.12449806     0.78400
C738        C  0.03014579  0.67139693  0.19295825     0.78800
C739        C  0.03100152  0.66733843  0.05350266     0.77800
C740        C  0.03411409  0.57365614  0.12434483     0.78200
C741        C  0.13565243  0.66739065  0.19179958     0.79300
C742        C  0.13907144  0.67261746  0.05573501     0.78400
C743        C  0.47611145  0.69213683  0.01719870     0.81400
N744        N  0.49573897  0.68736266  0.03860706    -0.76900
C745        C  0.01079666  0.67124689  0.02760077     0.83900
N746        N  0.00565481  0.65875379  0.49440748    -0.76800
C747        C  0.48550923  0.66357688  0.47253824     0.84000
N748        N  0.47067928  0.67993407  0.48457487    -0.78500
C749        C  0.48045851  0.51949289  0.37440075     0.81400
N750        N  0.01414637  0.53598980  0.37488946    -0.76900
C751        C  0.03082364  0.51928295  0.37494560     0.83900
N752        N  0.01347888  0.98568952  0.37445634    -0.76800
C753        C  0.47987709  0.96869470  0.37395600     0.84000
N754        N  0.46354994  0.98577415  0.37396624    -0.78500
Zn755      Zn  0.13280366  0.56936409  0.33382788     1.49700
Zn756      Zn  0.19363866  0.63130237  0.37416801     1.49400
Zn757      Zn  0.13294166  0.56810884  0.41629174     1.49100
Zn758      Zn  0.19322638  0.56720355  0.37535044     1.49500
O759        O  0.16282094  0.58391711  0.37484094    -1.82900
O760        O  0.14279623  0.60826282  0.30325124    -0.73500
O761        O  0.18461655  0.64812853  0.41793816    -0.73400
O762        O  0.08315780  0.54496252  0.40412499    -0.72900
O763        O  0.18593437  0.64992476  0.32992250    -0.73600
O764        O  0.08320115  0.54478260  0.34621360    -0.73200
O765        O  0.14517040  0.60668760  0.44882323    -0.73700
O766        O  0.18627996  0.54257136  0.41997143    -0.73100
O767        O  0.24394520  0.64768172  0.37469979    -0.73900
O768        O  0.14137794  0.53748900  0.44537928    -0.73300
O769        O  0.24364842  0.60091276  0.37327633    -0.73700
O770        O  0.18219080  0.53808760  0.33404340    -0.73600
O771        O  0.14269482  0.53998128  0.30373605    -0.73400
C772        C  0.16593707  0.63819779  0.30427828     0.78400
C773        C  0.16675432  0.63701828  0.44523513     0.78800
C774        C  0.06760513  0.53739421  0.37513021     0.77800
C775        C  0.16558474  0.53266445  0.44490973     0.78200
C776        C  0.25970381  0.63229029  0.37389247     0.79300
C777        C  0.16318940  0.53016344  0.30765955     0.78400
C778        C  0.19205072  0.71731115  0.48259793     0.81400
N779        N  0.18888145  0.69307404  0.46173601    -0.76900
C780        C  0.17157954  0.66129414  0.47192165     0.83900
N781        N  0.15658462  0.65341380  0.00393401    -0.76800
C782        C  0.16059478  0.67826063  0.02563284     0.84000
N783        N  0.17774040  0.70985188  0.01422027    -0.78500
C784        C  0.01455502  0.67722315  0.22318495     0.81400
N785        N  0.02990245  0.70883581  0.23464132    -0.76900
C786        C  0.02388970  0.71633823  0.26662074     0.83900
N787        N  0.00317181  0.69220105  0.28804167    -0.76800
C788        C  0.48760599  0.66057821  0.27756665     0.84000
N789        N  0.49339590  0.65252228  0.24503946    -0.78500
Zn790      Zn  0.39948696  0.60052813  0.33515352     1.49700
Zn791      Zn  0.46408157  0.60485386  0.37517288     1.49400
Zn792      Zn  0.40032686  0.60145703  0.41328006     1.49100
Zn793      Zn  0.39610591  0.53704811  0.37362525     1.49500
O794        O  0.41541025  0.58562886  0.37426219    -1.82900
O795        O  0.43631879  0.62593904  0.30231486    -0.73500
O796        O  0.48434095  0.63415021  0.41982537    -0.73400
O797        O  0.37292461  0.62411671  0.40287933    -0.72900
O798        O  0.48070356  0.63138558  0.32979644    -0.73600
O799        O  0.37595056  0.62709901  0.34551065    -0.73200
O800        O  0.43912704  0.63255617  0.43934706    -0.73700
O801        O  0.37018897  0.52074160  0.41920007    -0.73100
O802        O  0.47835751  0.56962008  0.37499382    -0.73900
O803        O  0.37580201  0.56505827  0.44689912    -0.73300
O804        O  0.43086411  0.52240421  0.37370536    -0.73700
O805        O  0.36650469  0.51649790  0.32938267    -0.73600
O806        O  0.36877575  0.56165672  0.30864569    -0.73400
C807        C  0.46699175  0.63659015  0.30365792     0.78400
C808        C  0.46960383  0.64262824  0.44186365     0.78800
C809        C  0.36643720  0.63332697  0.37417291     0.77800
C810        C  0.36529239  0.53442902  0.44555620     0.78200
C811        C  0.46232128  0.53812986  0.37436125     0.79300
C812        C  0.35835135  0.53106654  0.30680957     0.78400
C813        C  0.02620200  0.81573297  0.48080015     0.81400
N814        N  0.00498909  0.81781609  0.45903803    -0.76900
C815        C  0.48949242  0.83410198  0.46850638     0.83900
N816        N  0.49598306  0.84934677  0.00021017    -0.76800
C817        C  0.01669892  0.84626673  0.02274225     0.84000
N818        N  0.03207564  0.82995497  0.01253715    -0.78500
Zn819      Zn  0.20986993  0.86447193  0.35935449     1.49700
Zn820      Zn  0.13638189  0.84600811  0.36085863     1.49400
Zn821      Zn  0.15404839  0.79016218  0.36123121     1.49100
Zn822      Zn  0.16665095  0.83370203  0.42173444     1.49500
O823        O  0.16688074  0.83354765  0.37336649    -1.82900
O824        O  0.20771886  0.89389181  0.32367196    -0.73500
O825        O  0.10691750  0.81455600  0.32570441    -0.73400
O826        O  0.18457284  0.79152289  0.32518079    -0.72900
O827        O  0.16000706  0.89034460  0.33762165    -0.73600
O828        O  0.22980462  0.84006755  0.33614315    -0.73200
O829        O  0.10914198  0.76949360  0.33890899    -0.73700
O830        O  0.18753479  0.80995195  0.43911329    -0.73100
O831        O  0.10618568  0.83926686  0.40168089    -0.73900
O832        O  0.16238953  0.76782203  0.40218766    -0.73300
O833        O  0.12151845  0.81356033  0.43924730    -0.73700
O834        O  0.19158731  0.87888666  0.43770176    -0.73600
O835        O  0.23326482  0.89503393  0.40028468    -0.73400
C836        C  0.18723655  0.90369274  0.32101615     0.78400
C837        C  0.09642208  0.78404824  0.32272026     0.78800
C838        C  0.21496839  0.81201935  0.32098728     0.77800
C839        C  0.18033876  0.78155363  0.42900336     0.78200
C840        C  0.10128067  0.82189959  0.42901913     0.79300
C841        C  0.22021590  0.89964442  0.42732253     0.78400
Zn842      Zn  0.43097658  0.86627858  0.33295153     1.49700
Zn843      Zn  0.42920613  0.86663996  0.41521740     1.49400
Zn844      Zn  0.36739115  0.80540553  0.37493656     1.49100
Zn845      Zn  0.43168947  0.80606859  0.37425318     1.49500
O846        O  0.41487094  0.83638215  0.37434886    -1.82900
O847        O  0.45404168  0.91619335  0.34493386    -0.73500
O848        O  0.39025332  0.85654620  0.44545126    -0.73400
O849        O  0.35064002  0.81459426  0.33118543    -0.72900
O850        O  0.45381277  0.91630353  0.40281780    -0.73600
O851        O  0.39242570  0.85378525  0.30036163    -0.73200
O852        O  0.34873773  0.81269882  0.41950321    -0.73700
O853        O  0.39793045  0.75559868  0.37557806    -0.73100
O854        O  0.45837209  0.85699972  0.44600047    -0.73900
O855        O  0.35105862  0.75511260  0.37391524    -0.73300
O856        O  0.46001659  0.81705669  0.41634617    -0.73700
O857        O  0.45743162  0.81353415  0.33014036    -0.73600
O858        O  0.46197747  0.85797553  0.30420418    -0.73400
C859        C  0.46143042  0.93185382  0.37386856     0.78400
C860        C  0.36051746  0.83298044  0.44491449     0.78800
C861        C  0.36201640  0.83236835  0.30385704     0.77800
C862        C  0.36654731  0.73945235  0.37467013     0.78200
C863        C  0.46799078  0.83631437  0.44254287     0.79300
C864        C  0.46742152  0.83417827  0.30512923     0.78400
C865        C  0.28212614  0.80675382  0.26499715     0.81400
N866        N  0.30607767  0.80998172  0.28639529    -0.77300
C867        C  0.33803915  0.82758045  0.27683766     0.83900
N868        N  0.34638750  0.84282188  0.24498744    -0.76800
C869        C  0.32187902  0.83885361  0.22281689     0.84000
N870        N  0.29007066  0.82138052  0.23355177    -0.78500
C871        C  0.32457347  0.98598709  0.02556915     0.81400
N872        N  0.34932859  0.50790841  0.00421313    -0.76900
C873        C  0.34138354  0.51364518  0.47157885     0.83900
N874        N  0.30996044  0.99721999  0.46047637    -0.76800
C875        C  0.28582381  0.97574275  0.48133484     0.84000
N876        N  0.29315383  0.96984930  0.01345268    -0.78500
C877        C  0.18662183  0.97453850  0.26783912     0.81400
N878        N  0.18347726  0.99470052  0.29029964    -0.76900
C879        C  0.16591152  0.50906675  0.28159497     0.83900
N880        N  0.15053276  0.50252957  0.25003304    -0.76800
C881        C  0.15447903  0.98280819  0.22691312     0.84000
N882        N  0.17205913  0.96850773  0.23626394    -0.78500
C883        C  0.34783459  0.65155877  0.37412827     0.81400
N884        N  0.31410203  0.63472368  0.37392530    -0.76900
C885        C  0.29694986  0.65106280  0.37388188     0.83900
N886        N  0.31419333  0.68478799  0.37413497    -0.76800
C887        C  0.34792005  0.70221753  0.37439583     0.84000
N888        N  0.36444508  0.68526638  0.37435044    -0.78500
C889        C  0.25203382  0.79980747  0.28059644    -0.12100
C890        C  0.23302806  0.80309734  0.29834370    -0.13600
C891        C  0.23835998  0.92854173  0.44750490    -0.12100
C892        C  0.25660224  0.95162600  0.46501690    -0.13600
C893        C  0.19484986  0.93059724  0.29850264    -0.12100
C894        C  0.19573998  0.95239379  0.28165061    -0.13600
C895        C  0.07266873  0.81225458  0.44943773    -0.12100
C896        C  0.04969237  0.80902987  0.46594808    -0.13600
C897        C  0.06942933  0.76560033  0.30007687    -0.12100
C898        C  0.04719984  0.74644908  0.28215012    -0.13600
C899        C  0.19771414  0.74660434  0.46619304    -0.12100
C900        C  0.19227810  0.76447538  0.44901959    -0.13600
C901        C  0.26336035  0.68835182  0.19924141    -0.12100
C902        C  0.24419261  0.69262081  0.21534769    -0.13600
C903        C  0.29992961  0.54493271  0.21647873    -0.12100
C904        C  0.30529240  0.56807302  0.19900854    -0.13600
C905        C  0.43102590  0.69501966  0.05151797    -0.12100
C906        C  0.45294608  0.69858046  0.03301225    -0.13600
C907        C  0.42904914  0.73464712  0.20414313    -0.12100
C908        C  0.45196954  0.75462968  0.22083112    -0.13600
C909        C  0.26665572  0.57043186  0.04721114    -0.12100
C910        C  0.24593916  0.54911042  0.02943532    -0.13600
C911        C  0.30754597  0.75509268  0.03519293    -0.12100
C912        C  0.30946439  0.73509144  0.05249303    -0.13600
C913        C  0.01508596  0.98600082  0.62575090     0.81400
N914        N  0.03181502  0.51964625  0.62502402    -0.76900
C915        C  0.01541073  0.53662273  0.62499294     0.83900
N916        N  0.48169280  0.51939339  0.62555204    -0.76800
C917        C  0.46447128  0.98568749  0.62618690     0.84000
N918        N  0.48144885  0.96930597  0.62633534    -0.78500
C919        C  0.14784352  0.85325391  0.62397863     0.81400
N920        N  0.13115864  0.81946212  0.62415346    -0.76900
C921        C  0.14768091  0.80250065  0.62437064     0.83900
N922        N  0.18130258  0.81973095  0.62416637    -0.76800
C923        C  0.19859876  0.85334705  0.62380682     0.84000
N924        N  0.18166792  0.86992706  0.62386073    -0.78500
C925        C  0.31431014  0.78546945  0.52075052     0.81400
N926        N  0.32632994  0.79353125  0.98802608    -0.76900
C927        C  0.34121279  0.82522795  0.97708223     0.83900
N928        N  0.34465060  0.84919139  0.99969633    -0.76800
C929        C  0.33198376  0.84061637  0.53257231     0.84000
N930        N  0.31747203  0.80899592  0.54294960    -0.78500
Zn931      Zn  0.06374557  0.87233934  0.62410725     1.49700
Zn932      Zn  0.06502998  0.93460171  0.58430984     1.49400
Zn933      Zn  0.06592097  0.93507078  0.66594095     1.49100
Zn934      Zn  0.12803267  0.93669660  0.62542389     1.49500
O935        O  0.08052790  0.91976579  0.62492793    -1.82900
O936        O  0.03821945  0.85467364  0.57944023    -0.73500
O937        O  0.04113058  0.96011164  0.59659764    -0.73400
O938        O  0.03743162  0.89575673  0.69655868    -0.72900
O939        O  0.03522691  0.89567179  0.55401492    -0.73600
O940        O  0.03570013  0.85422029  0.66660634    -0.73200
O941        O  0.04075600  0.95947935  0.65440984    -0.73700
O942        O  0.14585097  0.96155108  0.67016678    -0.73100
O943        O  0.10436162  0.96331071  0.55374659    -0.73900
O944        O  0.10496934  0.96441315  0.69606225    -0.73300
O945        O  0.14609604  0.96544007  0.58367229    -0.73700
O946        O  0.14473237  0.90315016  0.62344788    -0.73600
O947        O  0.09779485  0.85611791  0.62505273    -0.73400
C948        C  0.02922142  0.86613720  0.55439075     0.78400
C949        C  0.03327589  0.96764720  0.62558734     0.78800
C950        C  0.02810754  0.86538259  0.69312771     0.77800
C951        C  0.13446155  0.97031791  0.69545103     0.78200
C952        C  0.13482614  0.97302477  0.55728159     0.79300
C953        C  0.12922614  0.87174298  0.62413468     0.78400
C954        C  0.17314705  0.51993422  0.97605891     0.81400
N955        N  0.14943571  0.00041824  0.99951326    -0.76900
C956        C  0.15857196  0.99356331  0.53067324     0.83900
N957        N  0.19083805  0.50730516  0.53860682    -0.76800
C958        C  0.21419976  0.52721521  0.51583478     0.84000
N959        N  0.20539310  0.53365609  0.98469124    -0.78500
C960        C  0.48096736  0.82692561  0.77434387     0.81400
N961        N  0.00050938  0.85068054  0.75090642    -0.76900
C962        C  0.00788743  0.84163183  0.71994364     0.83900
N963        N  0.49450133  0.80939374  0.71211745    -0.76800
C964        C  0.47448682  0.78598570  0.73478249     0.84000
N965        N  0.46766818  0.79473757  0.76576064    -0.78500
Zn966      Zn  0.29227893  0.65304981  0.61201888     1.49700
Zn967      Zn  0.36613672  0.70813643  0.61487009     1.49400
Zn968      Zn  0.33410938  0.66437583  0.67442053     1.49100
Zn969      Zn  0.34618759  0.63378586  0.61227573     1.49500
O970        O  0.33481588  0.66474560  0.62610950    -1.82900
O971        O  0.29598273  0.68517693  0.57682819    -0.73500
O972        O  0.39668615  0.73013488  0.65611509    -0.73400
O973        O  0.30986938  0.68516152  0.69058595    -0.72900
O974        O  0.34333094  0.72974830  0.59262750    -0.73600
O975        O  0.26876000  0.66010936  0.65232916    -0.73200
O976        O  0.37895681  0.68802315  0.69298255    -0.73700
O977        O  0.33585361  0.60169962  0.65248118    -0.73100
O978        O  0.39478727  0.70652934  0.57889997    -0.73900
O979        O  0.31183297  0.61907152  0.69014234    -0.73300
O980        O  0.39139707  0.65836182  0.59037372    -0.73700
O981        O  0.31571017  0.60605508  0.57484061    -0.73600
O982        O  0.27112941  0.60905324  0.58785543    -0.73400
C983        C  0.31659157  0.71576907  0.57509640     0.78400
C984        C  0.40042989  0.71665695  0.68325813     0.78800
C985        C  0.28157063  0.67757632  0.67963826     0.77800
C986        C  0.31800117  0.59745506  0.67933983     0.78200
C987        C  0.40450870  0.68617810  0.57479435     0.79300
C988        C  0.28541374  0.59638990  0.57111297     0.78400
Zn989      Zn  0.30123166  0.90191813  0.66357788     1.49700
Zn990      Zn  0.36165857  0.96678127  0.62422527     1.49400
Zn991      Zn  0.36238051  0.89956655  0.62796838     1.49100
Zn992      Zn  0.30224575  0.90141323  0.58561649     1.49500
O993        O  0.33271243  0.91799557  0.62510833    -1.82900
O994        O  0.31355543  0.93761395  0.69763462    -0.73500
O995        O  0.41161894  0.98224967  0.62481549    -0.73400
O996        O  0.35278407  0.87105927  0.67271649    -0.72900
O997        O  0.35114761  0.98276044  0.66957497    -0.73600
O998        O  0.30683302  0.86956172  0.68927247    -0.73200
O999        O  0.41191385  0.93543366  0.62776154    -0.73700
O1000       O  0.31361328  0.87440004  0.55520381    -0.73100
O1001       O  0.35226859  0.98636850  0.57940059    -0.73900
O1002       O  0.35313766  0.87139000  0.58430064    -0.73300
O1003       O  0.31137666  0.93962481  0.55768081    -0.73700
O1004       O  0.25158321  0.87597979  0.59556104    -0.73600
O1005       O  0.25133162  0.88118894  0.65266968    -0.73400
C1006       C  0.33281418  0.96846500  0.69609235     0.78400
C1007       C  0.42744359  0.96689270  0.62631758     0.78800
C1008       C  0.32796412  0.86074474  0.69300222     0.77800
C1009       C  0.33395795  0.86441348  0.55803151     0.78200
C1010       C  0.33041771  0.97056278  0.55600598     0.79300
C1011       C  0.23565914  0.87138948  0.62394383     0.78400
C1012       C  0.30642243  0.52195505  0.73263584     0.81400
N1013       N  0.31969526  0.52848198  0.76483318    -0.76900
C1014       C  0.33695810  0.51452961  0.77661969     0.83900
N1015       N  0.34187353  0.99441031  0.75482715    -0.76800
C1016       C  0.32834636  0.98818386  0.72209413     0.84000
N1017       N  0.31115154  0.50219562  0.71139217    -0.78500
C1018       C  0.21415916  0.68674374  0.72985093     0.81400
N1019       N  0.20562329  0.67358509  0.76206827    -0.76900
C1020       C  0.17377842  0.65812737  0.77253961     0.83900
N1021       N  0.15005660  0.65522380  0.74987949    -0.76800
C1022       C  0.15912646  0.66919915  0.71756106     0.84000
N1023       N  0.19091818  0.68424273  0.70766525    -0.78500
Zn1024     Zn  0.09801777  0.69959558  0.58530439     1.49700
Zn1025     Zn  0.09919005  0.69926297  0.66338634     1.49400
Zn1026     Zn  0.03379073  0.63923586  0.62544654     1.49100
Zn1027     Zn  0.10111161  0.63896345  0.62160138     1.49500
O1028       O  0.08250562  0.66847499  0.62413231    -1.82900
O1029       O  0.11901362  0.74959227  0.59595602    -0.73500
O1030       O  0.06101243  0.69081855  0.69104065    -0.73400
O1031       O  0.01710818  0.64900275  0.58012594    -0.72900
O1032       O  0.12530180  0.74976757  0.65295217    -0.73600
O1033       O  0.06179111  0.68695581  0.55173045    -0.73200
O1034       O  0.01447398  0.64897572  0.67007515    -0.73700
O1035       O  0.06555768  0.58931011  0.62249901    -0.73100
O1036       O  0.12558720  0.68767668  0.69448364    -0.73900
O1037       O  0.01864244  0.58937124  0.62569847    -0.73300
O1038       O  0.12913151  0.64846630  0.66538383    -0.73700
O1039       O  0.12935372  0.64829819  0.57663123    -0.73600
O1040       O  0.13001274  0.69360886  0.55913709    -0.73400
C1041       C  0.12949911  0.76547031  0.62449820     0.78400
C1042       C  0.03014508  0.67139681  0.69295815     0.78800
C1043       C  0.03100095  0.66733854  0.55350284     0.77800
C1044       C  0.03411346  0.57365601  0.62434493     0.78200
C1045       C  0.13565175  0.66739072  0.69179945     0.79300
C1046       C  0.13907048  0.67261710  0.55573473     0.78400
C1047       C  0.47611041  0.69213631  0.51719878     0.81400
N1048       N  0.49573798  0.68736232  0.53860720    -0.76900
C1049       C  0.01079607  0.67124689  0.52760092     0.83900
N1050       N  0.00565514  0.65875361  0.99440742    -0.76800
C1051       C  0.48550966  0.66357691  0.97253822     0.84000
N1052       N  0.47068006  0.67993443  0.98457485    -0.78500
C1053       C  0.48045839  0.51949316  0.87440088     0.81400
N1054       N  0.01414632  0.53599029  0.87488970    -0.76900
C1055       C  0.03082373  0.51928360  0.87494594     0.83900
N1056       N  0.01347917  0.98569018  0.87445658    -0.76800
C1057       C  0.47987731  0.96869524  0.87395622     0.84000
N1058       N  0.46355001  0.98577451  0.87396637    -0.78500
Zn1059     Zn  0.13280363  0.56936463  0.83382797     1.49700
Zn1060     Zn  0.19363879  0.63130313  0.87416776     1.49400
Zn1061     Zn  0.13294187  0.56810970  0.91629181     1.49100
Zn1062     Zn  0.19322646  0.56720425  0.87535044     1.49500
O1063       O  0.16282103  0.58391781  0.87484094    -1.82900
O1064       O  0.14279602  0.60826325  0.80325123    -0.73500
O1065       O  0.18461706  0.64812951  0.91793803    -0.73400
O1066       O  0.08315799  0.54496353  0.90412525    -0.72900
O1067       O  0.18593416  0.64992534  0.82992234    -0.73600
O1068       O  0.08320120  0.54478315  0.84621385    -0.73200
O1069       O  0.14517101  0.60668860  0.94882321    -0.73700
O1070       O  0.18628002  0.54257209  0.91997153    -0.73100
O1071       O  0.24394532  0.64768244  0.87469929    -0.73900
O1072       O  0.14137807  0.53748979  0.94537946    -0.73300
O1073       O  0.24364844  0.60091341  0.87327631    -0.73700
O1074       O  0.18219078  0.53808815  0.83404348    -0.73600
O1075       O  0.14269468  0.53998171  0.80373620    -0.73400
C1076       C  0.16593677  0.63819830  0.80427820     0.78400
C1077       C  0.16675496  0.63701921  0.94523503     0.78800
C1078       C  0.06760520  0.53739496  0.87513050     0.77800
C1079       C  0.16558490  0.53266520  0.94490977     0.78200
C1080       C  0.25970392  0.63229102  0.87389219     0.79300
C1081       C  0.16318929  0.53016382  0.80765966     0.78400
C1082       C  0.19205187  0.71731194  0.98259868     0.81400
N1083       N  0.18888248  0.69307502  0.96173638    -0.76900
C1084       C  0.17158047  0.66129502  0.97192173     0.83900
N1085       N  0.15658366  0.65341313  0.50393384    -0.76800
C1086       C  0.16059361  0.67826003  0.52563238     0.84000
N1087       N  0.17773913  0.70985123  0.51421959    -0.78500
C1088       C  0.01455443  0.67722306  0.72318494     0.81400
N1089       N  0.02990237  0.70883569  0.73464159    -0.76900
C1090       C  0.02388993  0.71633810  0.76662117     0.83900
N1091       N  0.00317176  0.69220089  0.78804193    -0.76800
C1092       C  0.48760551  0.66057812  0.77756666     0.84000
N1093       N  0.49339518  0.65252224  0.74503929    -0.78500
Zn1094     Zn  0.39948656  0.60052811  0.83515363     1.49700
Zn1095     Zn  0.46408126  0.60485394  0.87517280     1.49400
Zn1096     Zn  0.40032686  0.60145739  0.91328024     1.49100
Zn1097     Zn  0.39610566  0.53704819  0.87362543     1.49500
O1098       O  0.41540996  0.58562896  0.87426232    -1.82900
O1099       O  0.43631829  0.62593897  0.80231481    -0.73500
O1100       O  0.48434093  0.63415026  0.91982524    -0.73400
O1101       O  0.37292481  0.62411734  0.90287950    -0.72900
O1102       O  0.48070307  0.63138555  0.82979638    -0.73600
O1103       O  0.37595010  0.62709894  0.84551078    -0.73200
O1104       O  0.43912720  0.63255633  0.93934732    -0.73700
O1105       O  0.37018896  0.52074190  0.91920040    -0.73100
O1106       O  0.47835722  0.56962024  0.87499372    -0.73900
O1107       O  0.37580198  0.56505863  0.94689932    -0.73300
O1108       O  0.43086389  0.52240431  0.87370557    -0.73700
O1109       O  0.36650434  0.51649782  0.82938284    -0.73600
O1110       O  0.36877538  0.56165662  0.80864588    -0.73400
C1111       C  0.46699124  0.63659009  0.80365787     0.78400
C1112       C  0.46960400  0.64262829  0.94186372     0.78800
C1113       C  0.36643716  0.63332730  0.87417306     0.77800
C1114       C  0.36529246  0.53442941  0.94555652     0.78200
C1115       C  0.46232111  0.53813011  0.87436133     0.79300
C1116       C  0.35835101  0.53106646  0.80680973     0.78400
C1117       C  0.02620265  0.81573346  0.98079987     0.81400
N1118       N  0.00498980  0.81781675  0.95903775    -0.76900
C1119       C  0.48949319  0.83410249  0.96850609     0.83900
N1120       N  0.49598239  0.84934625  0.50021030    -0.76800
C1121       C  0.01669829  0.84626633  0.52274245     0.84000
N1122       N  0.03207502  0.82995456  0.51253736    -0.78500
Zn1123     Zn  0.20987069  0.86447247  0.85935462     1.49700
Zn1124     Zn  0.13638250  0.84600813  0.86085847     1.49400
Zn1125     Zn  0.15404929  0.79016247  0.86123193     1.49100
Zn1126     Zn  0.16665167  0.83370261  0.92173464     1.49500
O1127       O  0.16688155  0.83354804  0.87336669    -1.82900
O1128       O  0.20771953  0.89389240  0.82367208    -0.73500
O1129       O  0.10691837  0.81455575  0.82570427    -0.73400
O1130       O  0.18457368  0.79152305  0.82518163    -0.72900
O1131       O  0.16000737  0.89034456  0.83762141    -0.73600
O1132       O  0.22980534  0.84006804  0.83614330    -0.73200
O1133       O  0.10914283  0.76949350  0.83890973    -0.73700
O1134       O  0.18753569  0.80995278  0.93911396    -0.73100
O1135       O  0.10618614  0.83926686  0.90168051    -0.73900
O1136       O  0.16239057  0.76782265  0.90218862    -0.73300
O1137       O  0.12151916  0.81356088  0.93924739    -0.73700
O1138       O  0.19158784  0.87888729  0.93770174    -0.73600
O1139       O  0.23326553  0.89503446  0.90028492    -0.73400
C1140       C  0.18723699  0.90369305  0.82101611     0.78400
C1141       C  0.09642291  0.78404793  0.82272058     0.78800
C1142       C  0.21496917  0.81201965  0.82098775     0.77800
C1143       C  0.18033975  0.78155448  0.92900424     0.78200
C1144       C  0.10128125  0.82189988  0.92901894     0.79300
C1145       C  0.22021648  0.89964498  0.92732264     0.78400
Zn1146     Zn  0.43097717  0.86627918  0.83295164     1.49700
Zn1147     Zn  0.42920670  0.86664048  0.91521751     1.49400
Zn1148     Zn  0.36739171  0.80540616  0.87493657     1.49100
Zn1149     Zn  0.43168985  0.80606906  0.87425330     1.49500
O1150       O  0.41487147  0.83638272  0.87434892    -1.82900
O1151       O  0.45404214  0.91619390  0.84493401    -0.73500
O1152       O  0.39025396  0.85654656  0.94545141    -0.73400
O1153       O  0.35064070  0.81459505  0.83118549    -0.72900
O1154       O  0.45381316  0.91630403  0.90281796    -0.73600
O1155       O  0.39242638  0.85378590  0.80036159    -0.73200
O1156       O  0.34873831  0.81269930  0.91950325    -0.73700
O1157       O  0.39793075  0.75559912  0.87557825    -0.73100
O1158       O  0.45837279  0.85700030  0.94600038    -0.73900
O1159       O  0.35105904  0.75511319  0.87391508    -0.73300
O1160       O  0.46001709  0.81705717  0.91634607    -0.73700
O1161       O  0.45743185  0.81353454  0.83014046    -0.73600
O1162       O  0.46197814  0.85797618  0.80420444    -0.73400
C1163       C  0.46143081  0.93185436  0.87386874     0.78400
C1164       C  0.36051805  0.83298079  0.94491462     0.78800
C1165       C  0.36201711  0.83236910  0.80385701     0.77800
C1166       C  0.36654758  0.73945291  0.87467012     0.78200
C1167       C  0.46799143  0.83631507  0.94254284     0.79300
C1168       C  0.46742197  0.83417871  0.80512936     0.78400
C1169       C  0.28212661  0.80675407  0.76499742     0.81400
N1170       N  0.30607838  0.80998222  0.78639537    -0.77300
C1171       C  0.33803975  0.82758108  0.77683770     0.83900
N1172       N  0.34638796  0.84282252  0.74498745    -0.76800
C1173       C  0.32187930  0.83885402  0.72281701     0.84000
N1174       N  0.29007104  0.82138080  0.73355194    -0.78500
C1175       C  0.32457302  0.98598692  0.52556886     0.81400
N1176       N  0.34932823  0.50790813  0.50421277    -0.76900
C1177       C  0.34138376  0.51364563  0.97157928     0.83900
N1178       N  0.30996062  0.99722045  0.96047698    -0.76800
C1179       C  0.28582412  0.97574312  0.98133538     0.84000
N1180       N  0.29315340  0.96984909  0.51345225    -0.78500
C1181       C  0.18662163  0.97453870  0.76783948     0.81400
N1182       N  0.18347701  0.99470077  0.79029993    -0.76900
C1183       C  0.16591127  0.50906695  0.78159513     0.83900
N1184       N  0.15053247  0.50252982  0.75003328    -0.76800
C1185       C  0.15447878  0.98280832  0.72691341     0.84000
N1186       N  0.17205889  0.96850790  0.73626425    -0.78500
C1187       C  0.34783466  0.65155919  0.87412837     0.81400
N1188       N  0.31410202  0.63472424  0.87392521    -0.76900
C1189       C  0.29695005  0.65106342  0.87388164     0.83900
N1190       N  0.31419347  0.68478854  0.87413478    -0.76800
C1191       C  0.34792028  0.70221813  0.87439580     0.84000
N1192       N  0.36444518  0.68526683  0.87435054    -0.78500
C1193       C  0.25203438  0.79980766  0.78059682    -0.12100
C1194       C  0.23302874  0.80309757  0.79834416    -0.13600
C1195       C  0.23836047  0.92854220  0.94750510    -0.12100
C1196       C  0.25660262  0.95162642  0.96501742    -0.13600
C1197       C  0.19485015  0.93059762  0.79850275    -0.12100
C1198       C  0.19573999  0.95239414  0.78165090    -0.13600
C1199       C  0.07266930  0.81225492  0.94943746    -0.12100
C1200       C  0.04969295  0.80903029  0.96594783    -0.13600
C1201       C  0.06943012  0.76559976  0.80007733    -0.12100
C1202       C  0.04720052  0.74644865  0.78215070    -0.13600
C1203       C  0.19771532  0.74660529  0.96619404    -0.12100
C1204       C  0.19227921  0.76447641  0.94902065    -0.13600
C1205       C  0.26336023  0.68835340  0.69924180    -0.12100
C1206       C  0.24419231  0.69262234  0.71534797    -0.13600
C1207       C  0.29992932  0.54493312  0.71647926    -0.12100
C1208       C  0.30529192  0.56807366  0.69900943    -0.13600
C1209       C  0.43102489  0.69501930  0.55151813    -0.12100
C1210       C  0.45294492  0.69857985  0.53301224    -0.13600
C1211       C  0.42904911  0.73464760  0.70414359    -0.12100
C1212       C  0.45196957  0.75462999  0.72083141    -0.13600
C1213       C  0.26665504  0.57043254  0.54721228    -0.12100
C1214       C  0.24593869  0.54911102  0.52943624    -0.13600
C1215       C  0.30754547  0.75509269  0.53519301    -0.12100
C1216       C  0.30946412  0.73509167  0.55249327    -0.13600
C1217       C  0.51508637  0.48599686  0.12575278     0.81400
N1218       N  0.53181365  0.01965045  0.12503082    -0.76900
C1219       C  0.51540753  0.03662517  0.12500249     0.83900
N1220       N  0.98168955  0.01939387  0.12555677    -0.76800
C1221       C  0.96447378  0.48568745  0.12618976     0.84000
N1222       N  0.98144945  0.46930411  0.12634154    -0.78500
C1223       C  0.64784575  0.35325455  0.12397178     0.81400
N1224       N  0.63116186  0.31946303  0.12414478    -0.76900
C1225       C  0.64768488  0.30250241  0.12436368     0.83900
N1226       N  0.68130657  0.31973348  0.12416431    -0.76800
C1227       C  0.69860189  0.35334951  0.12380646     0.84000
N1228       N  0.68167027  0.36992879  0.12385769    -0.78500
C1229       C  0.81431372  0.28547977  0.02074974     0.81400
N1230       N  0.82633568  0.29353912  0.48802628    -0.76900
C1231       C  0.84122016  0.32523514  0.47707982     0.83900
N1232       N  0.84465658  0.34920050  0.49969078    -0.76800
C1233       C  0.83198682  0.34062754  0.03256605     0.84000
N1234       N  0.81747335  0.30900755  0.04294521    -0.78500
Zn1235     Zn  0.56374328  0.37233250  0.12409987     1.49700
Zn1236     Zn  0.56503183  0.43460088  0.08431144     1.49400
Zn1237     Zn  0.56591042  0.43505514  0.16594285     1.49100
Zn1238     Zn  0.62802988  0.43669333  0.12543079     1.49500
O1239       O  0.58052450  0.41975896  0.12492877    -1.82900
O1240       O  0.53822523  0.35467532  0.07942806    -0.73500
O1241       O  0.54113351  0.46011053  0.09660046    -0.73400
O1242       O  0.53741692  0.39573423  0.19654869    -0.72900
O1243       O  0.53523302  0.39567580  0.05400800    -0.73600
O1244       O  0.53569047  0.35420146  0.16659361    -0.73200
O1245       O  0.54074709  0.45946611  0.15441255    -0.73700
O1246       O  0.64583932  0.46153506  0.17018247    -0.73100
O1247       O  0.60436684  0.46331657  0.05375622    -0.73900
O1248       O  0.60495332  0.46439018  0.19607641    -0.73300
O1249       O  0.64610023  0.46544906  0.08368683    -0.73700
O1250       O  0.64473173  0.40314912  0.12344698    -0.73600
O1251       O  0.59779537  0.35611501  0.12504384    -0.73400
C1252       C  0.52922990  0.36614192  0.05437930     0.78400
C1253       C  0.53327384  0.46764091  0.12559009     0.78800
C1254       C  0.52809446  0.36536072  0.19311501     0.77800
C1255       C  0.63444592  0.47029553  0.19546847     0.78200
C1256       C  0.63483198  0.47303526  0.05729575     0.79300
C1257       C  0.62922691  0.37174198  0.12412875     0.78400
C1258       C  0.67314001  0.01991484  0.47604027     0.81400
N1259       N  0.64944271  0.50043688  0.49953211    -0.76900
C1260       C  0.65857883  0.49357810  0.03068975     0.83900
N1261       N  0.69083147  0.00729641  0.03859226    -0.76800
C1262       C  0.71419290  0.02720800  0.01582112     0.84000
N1263       N  0.70538568  0.03364356  0.48467608    -0.78500
C1264       C  0.98096102  0.32690727  0.27433427     0.81400
N1265       N  0.50050016  0.35065998  0.25089391    -0.76900
C1266       C  0.50787456  0.34160930  0.21993039     0.83900
N1267       N  0.99448782  0.30937064  0.21210624    -0.76800
C1268       C  0.97447642  0.28596425  0.23477492     0.84000
N1269       N  0.96766144  0.29471862  0.26575382    -0.78500
Zn1270     Zn  0.79225529  0.15305106  0.11202563     1.49700
Zn1271     Zn  0.86611684  0.20812723  0.11487902     1.49400
Zn1272     Zn  0.83408402  0.16436375  0.17442916     1.49100
Zn1273     Zn  0.84615742  0.13377655  0.11228348     1.49500
O1274       O  0.83478970  0.16473846  0.12611806    -1.82900
O1275       O  0.79596716  0.18518464  0.07683815    -0.73500
O1276       O  0.89666820  0.23011875  0.15612318    -0.73400
O1277       O  0.80985084  0.18515491  0.19059738    -0.72900
O1278       O  0.84332089  0.22974937  0.09263707    -0.73600
O1279       O  0.76874060  0.16011445  0.15233906    -0.73200
O1280       O  0.87893332  0.18800513  0.19298920    -0.73700
O1281       O  0.83581641  0.10168419  0.15248293    -0.73100
O1282       O  0.89476404  0.20651472  0.07890837    -0.73900
O1283       O  0.81180100  0.11905757  0.19014869    -0.73300
O1284       O  0.89136872  0.15834612  0.09038816    -0.73700
O1285       O  0.81568381  0.10605561  0.07484396    -0.73600
O1286       O  0.77110355  0.10905663  0.08785404    -0.73400
C1287       C  0.81658159  0.21577538  0.07510574     0.78400
C1288       C  0.90041013  0.21663752  0.18326439     0.78800
C1289       C  0.78155443  0.17757816  0.17964976     0.77800
C1290       C  0.81796546  0.09743949  0.17934266     0.78200
C1291       C  0.90448323  0.18616128  0.07480668     0.79300
C1292       C  0.78538881  0.09639387  0.07111170     0.78400
Zn1293     Zn  0.80123357  0.40191553  0.16358410     1.49700
Zn1294     Zn  0.86166173  0.46678489  0.12423837     1.49400
Zn1295     Zn  0.86238344  0.39956990  0.12796680     1.49100
Zn1296     Zn  0.80225032  0.40142198  0.08562108     1.49500
O1297       O  0.83271526  0.41799895  0.12511448    -1.82900
O1298       O  0.81355385  0.43760710  0.19764621    -0.73500
O1299       O  0.91162258  0.48225292  0.12482583    -0.73400
O1300       O  0.85278796  0.37105670  0.17270939    -0.72900
O1301       O  0.85114854  0.48275622  0.16959203    -0.73600
O1302       O  0.80683853  0.36955869  0.18927314    -0.73200
O1303       O  0.91191578  0.43543570  0.12776258    -0.73700
O1304       O  0.81361678  0.37441123  0.05520110    -0.73100
O1305       O  0.85227209  0.48637904  0.07941855    -0.73900
O1306       O  0.85314219  0.37140024  0.08429409    -0.73300
O1307       O  0.81138286  0.43963705  0.05769305    -0.73700
O1308       O  0.75158806  0.37599057  0.09556358    -0.73600
O1309       O  0.75133298  0.38118386  0.15267428    -0.73400
C1310       C  0.83281312  0.46845821  0.19610744     0.78400
C1311       C  0.92744628  0.46689479  0.12632278     0.78800
C1312       C  0.82796944  0.36074082  0.19299740     0.77800
C1313       C  0.83396244  0.36442551  0.05802538     0.78200
C1314       C  0.83042241  0.47057532  0.05602227     0.79300
C1315       C  0.73566227  0.37139246  0.12394649     0.78400
C1316       C  0.80641323  0.02194997  0.23263015     0.81400
N1317       N  0.81969525  0.02848416  0.26482338    -0.76900
C1318       C  0.83696776  0.01454022  0.27660383     0.83900
N1319       N  0.84186301  0.49439692  0.25484535    -0.76800
C1320       C  0.82834299  0.48817562  0.22210901     0.84000
N1321       N  0.81114452  0.00219354  0.21138364    -0.78500
C1322       C  0.71415847  0.18676203  0.22987191     0.81400
N1323       N  0.70562226  0.17360001  0.26208793    -0.76900
C1324       C  0.67377685  0.15813900  0.27255795     0.83900
N1325       N  0.65005490  0.15523441  0.24989758    -0.76800
C1326       C  0.65912512  0.16921356  0.21758106     0.84000
N1327       N  0.69091727  0.18426123  0.20768673    -0.78500
Zn1328     Zn  0.59801585  0.19959199  0.08530854     1.49700
Zn1329     Zn  0.59919219  0.19927162  0.16339157     1.49400
Zn1330     Zn  0.53379015  0.13924058  0.12546038     1.49100
Zn1331     Zn  0.60110999  0.13896456  0.12162151     1.49500
O1332       O  0.58250529  0.16847775  0.12414253    -1.82900
O1333       O  0.61901855  0.24959139  0.09595353    -0.73500
O1334       O  0.56101743  0.19083397  0.19104531    -0.73400
O1335       O  0.51710612  0.14900733  0.08014131    -0.72900
O1336       O  0.62530435  0.24977305  0.15295064    -0.73600
O1337       O  0.56178671  0.18695184  0.05173584    -0.73200
O1338       O  0.51447783  0.14898587  0.17008898    -0.73700
O1339       O  0.56555402  0.08931270  0.12251900    -0.73100
O1340       O  0.62558927  0.18769048  0.19449385    -0.73900
O1341       O  0.51863858  0.08937417  0.12571143    -0.73300
O1342       O  0.62912685  0.14847015  0.16540731    -0.73700
O1343       O  0.62935437  0.14829226  0.07665392    -0.73600
O1344       O  0.63000518  0.19359464  0.05914361    -0.73400
C1345       C  0.62950350  0.26547247  0.12449423     0.78400
C1346       C  0.53015056  0.17141179  0.19296688     0.78800
C1347       C  0.53099607  0.16733801  0.05351415     0.77800
C1348       C  0.53410963  0.07365870  0.12435997     0.78200
C1349       C  0.63565011  0.16740108  0.19181770     0.79300
C1350       C  0.63906659  0.17260494  0.05574959     0.78400
C1351       C  0.97608902  0.19211781  0.01721613     0.81400
N1352       N  0.99572177  0.18734969  0.03862263    -0.76900
C1353       C  0.51078751  0.17124263  0.02761341     0.83900
N1354       N  0.50564762  0.15875118  0.49441918    -0.76800
C1355       C  0.98549605  0.16356763  0.47255221     0.84000
N1356       N  0.97065898  0.17991692  0.48459165    -0.78500
C1357       C  0.98046014  0.01949851  0.37439918     0.81400
N1358       N  0.51414797  0.03599342  0.37488576    -0.76900
C1359       C  0.53082285  0.01928420  0.37494542     0.83900
N1360       N  0.51348189  0.48568833  0.37444988    -0.76800
C1361       C  0.97987995  0.46869128  0.37394731     0.84000
N1362       N  0.96355049  0.48576856  0.37396214    -0.78500
Zn1363     Zn  0.63280326  0.06936615  0.33382687     1.49700
Zn1364     Zn  0.69363612  0.13129907  0.37417718     1.49400
Zn1365     Zn  0.63293882  0.06809969  0.41629081     1.49100
Zn1366     Zn  0.69322576  0.06720264  0.37534392     1.49500
O1367       O  0.66281909  0.08391421  0.37484090    -1.82900
O1368       O  0.64279543  0.10826984  0.30326020    -0.73500
O1369       O  0.68461212  0.14811562  0.41795292    -0.73400
O1370       O  0.58315662  0.04495843  0.40412356    -0.72900
O1371       O  0.68593148  0.14992859  0.32993792    -0.73600
O1372       O  0.58320005  0.04478262  0.34621209    -0.73200
O1373       O  0.64516674  0.10667132  0.44883459    -0.73700
O1374       O  0.68627522  0.04255978  0.41995695    -0.73100
O1375       O  0.74394326  0.14768032  0.37470656    -0.73900
O1376       O  0.64137060  0.03747094  0.44536545    -0.73300
O1377       O  0.74364733  0.10091208  0.37327596    -0.73700
O1378       O  0.68219624  0.03809814  0.33402993    -0.73600
O1379       O  0.64269909  0.03999169  0.30372508    -0.73400
C1380       C  0.66593513  0.13820513  0.30429258     0.78400
C1381       C  0.66675040  0.13700242  0.44524995     0.78800
C1382       C  0.56760410  0.03739300  0.37512891     0.77800
C1383       C  0.66557764  0.03264707  0.44489310     0.78200
C1384       C  0.75970233  0.13228939  0.37389573     0.79300
C1385       C  0.66319684  0.03017717  0.30764509     0.78400
C1386       C  0.69204954  0.21729468  0.48261431     0.81400
N1387       N  0.68887975  0.19305689  0.46175353    -0.76900
C1388       C  0.67157624  0.16127715  0.47193872     0.83900
N1389       N  0.65657967  0.15339724  0.00395067    -0.76800
C1390       C  0.66059115  0.17824520  0.02564911     0.84000
N1391       N  0.67773849  0.20983624  0.01423625    -0.78500
C1392       C  0.51456305  0.17724074  0.22319449     0.81400
N1393       N  0.52991458  0.20885318  0.23465208    -0.76900
C1394       C  0.52390584  0.21635592  0.26663327     0.83900
N1395       N  0.50318787  0.19221905  0.28805469    -0.76800
C1396       C  0.98761782  0.16059658  0.27757786     0.84000
N1397       N  0.99340350  0.15254067  0.24504890    -0.78500
Zn1398     Zn  0.89949206  0.10053579  0.33514878     1.49700
Zn1399     Zn  0.96408429  0.10486049  0.37517668     1.49400
Zn1400     Zn  0.90032266  0.10145298  0.41327671     1.49100
Zn1401     Zn  0.89610896  0.03705310  0.37361264     1.49500
O1402       O  0.91541223  0.08563311  0.37425770    -1.82900
O1403       O  0.93632846  0.12595308  0.30231827    -0.73500
O1404       O  0.98433752  0.13414955  0.41983549    -0.73400
O1405       O  0.87291949  0.12411159  0.40287632    -0.72900
O1406       O  0.98071123  0.13140110  0.32980643    -0.73600
O1407       O  0.87595424  0.12710458  0.34550827    -0.73200
O1408       O  0.93911905  0.13254852  0.43935236    -0.73700
O1409       O  0.87018566  0.02073624  0.41918233    -0.73100
O1410       O  0.97836140  0.06962722  0.37499366    -0.73900
O1411       O  0.87579463  0.06504811  0.44688803    -0.73300
O1412       O  0.93086776  0.02241170  0.37369590    -0.73700
O1413       O  0.86651453  0.01650867  0.32936542    -0.73600
O1414       O  0.86878342  0.06166762  0.30863196    -0.73400
C1415       C  0.96700177  0.13660737  0.30366686     0.78400
C1416       C  0.96959593  0.14262228  0.44187367     0.78800
C1417       C  0.86643594  0.13332649  0.37417071     0.77800
C1418       C  0.86528613  0.03441927  0.44554038     0.78200
C1419       C  0.96232469  0.03813698  0.37435704     0.79300
C1420       C  0.85836130  0.03107795  0.30679312     0.78400
C1421       C  0.52622894  0.31575230  0.48078334     0.81400
N1422       N  0.50501429  0.31783160  0.45902016    -0.76900
C1423       C  0.98951044  0.33411015  0.46849000     0.83900
N1424       N  0.99599611  0.34935204  0.00019516    -0.76800
C1425       C  0.51671432  0.34627616  0.02272720     0.84000
N1426       N  0.53209763  0.32997116  0.01252141    -0.78500
Zn1427     Zn  0.70990123  0.36447468  0.35935570     1.49700
Zn1428     Zn  0.63641822  0.34601788  0.36086244     1.49400
Zn1429     Zn  0.65407177  0.29016304  0.36123631     1.49100
Zn1430     Zn  0.66667770  0.33370030  0.42173698     1.49500
O1431       O  0.66691210  0.33355087  0.37336930    -1.82900
O1432       O  0.70775300  0.39389817  0.32367250    -0.73500
O1433       O  0.60695006  0.31456871  0.32570922    -0.73400
O1434       O  0.68459330  0.29152018  0.32518579    -0.72900
O1435       O  0.66004404  0.39035364  0.33762834    -0.73600
O1436       O  0.72982922  0.34006430  0.33614129    -0.73200
O1437       O  0.60916531  0.26950151  0.33891495    -0.73700
O1438       O  0.68755534  0.30994545  0.43911965    -0.73100
O1439       O  0.60622501  0.33928381  0.40168249    -0.73900
O1440       O  0.66240599  0.26781708  0.40219333    -0.73300
O1441       O  0.62154338  0.31356249  0.43924505    -0.73700
O1442       O  0.69161516  0.37888327  0.43770554    -0.73600
O1443       O  0.73329420  0.39503578  0.40028883    -0.73400
C1444       C  0.68727175  0.40370094  0.32102028     0.78400
C1445       C  0.59644884  0.28405971  0.32272673     0.78800
C1446       C  0.71498858  0.31201494  0.32098738     0.77800
C1447       C  0.68035374  0.28154526  0.42901087     0.78200
C1448       C  0.60131266  0.32191135  0.42901762     0.79300
C1449       C  0.72024298  0.39964354  0.42732675     0.78400
Zn1450     Zn  0.93098359  0.36627372  0.33294364     1.49700
Zn1451     Zn  0.92921288  0.36663797  0.41520955     1.49400
Zn1452     Zn  0.86739537  0.30540606  0.37493363     1.49100
Zn1453     Zn  0.93169180  0.30606335  0.37424734     1.49500
O1454       O  0.91487575  0.33637912  0.37434266    -1.82900
O1455       O  0.95404961  0.41618988  0.34492373    -0.73500
O1456       O  0.89026338  0.35654669  0.44544864    -0.73400
O1457       O  0.85064660  0.31459365  0.33118021    -0.72900
O1458       O  0.95381677  0.41630015  0.40280763    -0.73600
O1459       O  0.89243333  0.35377989  0.30035324    -0.73200
O1460       O  0.84874338  0.31270354  0.41950044    -0.73700
O1461       O  0.89792995  0.25559542  0.37557719    -0.73100
O1462       O  0.95838337  0.35700045  0.44598687    -0.73900
O1463       O  0.85105959  0.25511248  0.37391416    -0.73300
O1464       O  0.96002616  0.31705511  0.41633512    -0.73700
O1465       O  0.95742735  0.31352047  0.33013183    -0.73600
O1466       O  0.96198154  0.35796558  0.30419645    -0.73400
C1467       C  0.96143566  0.43185033  0.37385849     0.78400
C1468       C  0.86052572  0.33298456  0.44491215     0.78800
C1469       C  0.86202378  0.33236452  0.30384974     0.77800
C1470       C  0.86654680  0.23945084  0.37466958     0.78200
C1471       C  0.96800346  0.33631630  0.44252910     0.79300
C1472       C  0.96741931  0.33416410  0.30512043     0.78400
C1473       C  0.78213345  0.30674059  0.26498604     0.81400
N1474       N  0.80608550  0.30997034  0.28638422    -0.77300
C1475       C  0.83804708  0.32757364  0.27682859     0.83900
N1476       N  0.84639505  0.34281741  0.24497962    -0.76800
C1477       C  0.82188608  0.33884682  0.22280840     0.84000
N1478       N  0.79007755  0.32136955  0.23354178    -0.78500
C1479       C  0.82457775  0.48600102  0.02558648     0.81400
N1480       N  0.84932376  0.00789357  0.00419465    -0.76900
C1481       C  0.84137759  0.01363179  0.47156164     0.83900
N1482       N  0.80996748  0.49722989  0.46049081    -0.76800
C1483       C  0.78583050  0.47575069  0.48134719     0.84000
N1484       N  0.79315906  0.46985983  0.01346696    -0.78500
C1485       C  0.68661923  0.47452821  0.26785160     0.81400
N1486       N  0.68347315  0.49468879  0.29031327    -0.76900
C1487       C  0.66592309  0.00908547  0.28157763     0.83900
N1488       N  0.65055039  0.00255404  0.25001283    -0.76800
C1489       C  0.65446132  0.48278396  0.22693292     0.84000
N1490       N  0.67204940  0.46849089  0.23627970    -0.78500
C1491       C  0.84783293  0.15155773  0.37412735     0.81400
N1492       N  0.81410034  0.13472269  0.37392647    -0.76900
C1493       C  0.79694835  0.15106207  0.37388440     0.83900
N1494       N  0.81419183  0.18478713  0.37413693    -0.76800
C1495       C  0.84791862  0.20221642  0.37439587     0.84000
N1496       N  0.86444337  0.18526511  0.37434877    -0.78500
C1497       C  0.75204243  0.29979516  0.28058723    -0.12100
C1498       C  0.73304212  0.30308914  0.29833934    -0.13600
C1499       C  0.73838203  0.42854150  0.44750953    -0.12100
C1500       C  0.75661540  0.45162754  0.46502464    -0.13600
C1501       C  0.69488113  0.43060482  0.29850716    -0.12100
C1502       C  0.69575626  0.45239577  0.28165783    -0.13600
C1503       C  0.57269965  0.31227096  0.44943213    -0.12100
C1504       C  0.54972124  0.30904979  0.46593546    -0.13600
C1505       C  0.56945291  0.26561448  0.30008644    -0.12100
C1506       C  0.54721994  0.24646521  0.28216214    -0.13600
C1507       C  0.69771502  0.24658809  0.46620780    -0.12100
C1508       C  0.69228441  0.26446121  0.44903088    -0.13600
C1509       C  0.76335096  0.18836187  0.19925580    -0.12100
C1510       C  0.74418943  0.19263730  0.21536632    -0.13600
C1511       C  0.79990350  0.04491838  0.21647812    -0.12100
C1512       C  0.80525677  0.06805715  0.19901047    -0.13600
C1513       C  0.93100025  0.19499858  0.05153329    -0.12100
C1514       C  0.95292117  0.19855754  0.03303003    -0.13600
C1515       C  0.92903252  0.23462355  0.20414656    -0.12100
C1516       C  0.95195732  0.25460675  0.22082891    -0.13600
C1517       C  0.76663402  0.07043923  0.04720714    -0.12100
C1518       C  0.74592645  0.04911425  0.02942707    -0.13600
C1519       C  0.80754694  0.25510372  0.03519667    -0.12100
C1520       C  0.80946119  0.23510205  0.05250056    -0.13600
C1521       C  0.51508585  0.48599675  0.62575260     0.81400
N1522       N  0.53181313  0.01965036  0.62503083    -0.76900
C1523       C  0.51540706  0.03662509  0.62500253     0.83900
N1524       N  0.98168899  0.01939382  0.62555666    -0.76800
C1525       C  0.96447331  0.48568750  0.62618959     0.84000
N1526       N  0.98144892  0.46930399  0.62634128    -0.78500
C1527       C  0.64784546  0.35325467  0.62397198     0.81400
N1528       N  0.63116143  0.31946296  0.62414493    -0.76900
C1529       C  0.64768446  0.30250240  0.62436393     0.83900
N1530       N  0.68130609  0.31973338  0.62416469    -0.76800
C1531       C  0.69860155  0.35334946  0.62380686     0.84000
N1532       N  0.68166988  0.36992870  0.62385801    -0.78500
C1533       C  0.81431295  0.28547961  0.52074963     0.81400
N1534       N  0.82633631  0.29353934  0.98802633    -0.76900
C1535       C  0.84122079  0.32523539  0.97707993     0.83900
N1536       N  0.84465727  0.34920069  0.99969102    -0.76800
C1537       C  0.83198598  0.34062740  0.53256576     0.84000
N1538       N  0.81747247  0.30900742  0.54294501    -0.78500
Zn1539     Zn  0.56374305  0.37233253  0.62409986     1.49700
Zn1540     Zn  0.56503144  0.43460071  0.58431136     1.49400
Zn1541     Zn  0.56591025  0.43505529  0.66594280     1.49100
Zn1542     Zn  0.62802962  0.43669334  0.62543099     1.49500
O1543       O  0.58052423  0.41975901  0.62492876    -1.82900
O1544       O  0.53822477  0.35467511  0.57942821    -0.73500
O1545       O  0.54113309  0.46011042  0.59660033    -0.73400
O1546       O  0.53741696  0.39573440  0.69654869    -0.72900
O1547       O  0.53523253  0.39567553  0.55400808    -0.73600
O1548       O  0.53569052  0.35420160  0.66659368    -0.73200
O1549       O  0.54074668  0.45946608  0.65441241    -0.73700
O1550       O  0.64583907  0.46153513  0.67018269    -0.73100
O1551       O  0.60436653  0.46331623  0.55375614    -0.73900
O1552       O  0.60495311  0.46439048  0.69607640    -0.73300
O1553       O  0.64609990  0.46544892  0.58368703    -0.73700
O1554       O  0.64473147  0.40314916  0.62344723    -0.73600
O1555       O  0.59779512  0.35611506  0.62504378    -0.73400
C1556       C  0.52922935  0.36614161  0.55437945     0.78400
C1557       C  0.53327341  0.46764078  0.62558994     0.78800
C1558       C  0.52809462  0.36536101  0.69311510     0.77800
C1559       C  0.63444570  0.47029573  0.69546862     0.78200
C1560       C  0.63483156  0.47303497  0.55729574     0.79300
C1561       C  0.62922649  0.37174192  0.62412887     0.78400
C1562       C  0.67314000  0.01991530  0.97604021     0.81400
N1563       N  0.64944290  0.50043750  0.99953226    -0.76900
C1564       C  0.65857868  0.49357783  0.53068995     0.83900
N1565       N  0.69083118  0.00729662  0.53859280    -0.76800
C1566       C  0.71419273  0.02720832  0.51582186     0.84000
N1567       N  0.70538579  0.03364358  0.98467563    -0.78500
C1568       C  0.98096136  0.32690763  0.77433442     0.81400
N1569       N  0.50050050  0.35066034  0.75089407    -0.76900
C1570       C  0.50787485  0.34160953  0.71993046     0.83900
N1571       N  0.99448802  0.30937092  0.71210640    -0.76800
C1572       C  0.97447666  0.28596454  0.73477517     0.84000
N1573       N  0.96766175  0.29471896  0.76575405    -0.78500
Zn1574     Zn  0.79225498  0.15305183  0.61202652     1.49700
Zn1575     Zn  0.86611661  0.20812779  0.61487950     1.49400
Zn1576     Zn  0.83408353  0.16436458  0.67443014     1.49100
Zn1577     Zn  0.84615690  0.13377720  0.61228443     1.49500
O1578       O  0.83478934  0.16473921  0.62611902    -1.82900
O1579       O  0.79596700  0.18518506  0.57683863    -0.73500
O1580       O  0.89666826  0.23011929  0.65612349    -0.73400
O1581       O  0.80985047  0.18515594  0.69059818    -0.72900
O1582       O  0.84332064  0.22974991  0.59263754    -0.73600
O1583       O  0.76874037  0.16011582  0.65233963    -0.73200
O1584       O  0.87893286  0.18800598  0.69299004    -0.73700
O1585       O  0.83581581  0.10168489  0.65248387    -0.73100
O1586       O  0.89476347  0.20651486  0.57890863    -0.73900
O1587       O  0.81180046  0.11905828  0.69014972    -0.73300
O1588       O  0.89136811  0.15834634  0.59038893    -0.73700
O1589       O  0.81568320  0.10605634  0.57484496    -0.73600
O1590       O  0.77110293  0.10905721  0.58785536    -0.73400
C1591       C  0.81658138  0.21577580  0.57510614     0.78400
C1592       C  0.90040997  0.21663813  0.68326489     0.78800
C1593       C  0.78155419  0.17757952  0.67965035     0.77800
C1594       C  0.81796489  0.09744017  0.67934365     0.78200
C1595       C  0.90448253  0.18616130  0.57480708     0.79300
C1596       C  0.78538817  0.09639454  0.57111285     0.78400
Zn1597     Zn  0.80123326  0.40191558  0.66358422     1.49700
Zn1598     Zn  0.86166123  0.46678490  0.62423819     1.49400
Zn1599     Zn  0.86238296  0.39956988  0.62796647     1.49100
Zn1600     Zn  0.80224965  0.40142191  0.58562112     1.49500
O1601       O  0.83271475  0.41799893  0.62511440    -1.82900
O1602       O  0.81355355  0.43760733  0.69764621    -0.73500
O1603       O  0.91162204  0.48225290  0.62482572    -0.73400
O1604       O  0.85278780  0.37105685  0.67270908    -0.72900
O1605       O  0.85114804  0.48275639  0.66959176    -0.73600
O1606       O  0.80683856  0.36955899  0.68927332    -0.73200
O1607       O  0.91191526  0.43543565  0.62776213    -0.73700
O1608       O  0.81361594  0.37441106  0.55520103    -0.73100
O1609       O  0.85227165  0.48637893  0.57941826    -0.73900
O1610       O  0.85314157  0.37140023  0.58429372    -0.73300
O1611       O  0.81138217  0.43963696  0.55769302    -0.73700
O1612       O  0.75158756  0.37599060  0.59556385    -0.73600
O1613       O  0.75133263  0.38118370  0.65267460    -0.73400
C1614       C  0.83281274  0.46845848  0.69610730     0.78400
C1615       C  0.92744578  0.46689467  0.62632253     0.78800
C1616       C  0.82796955  0.36074117  0.69299734     0.77800
C1617       C  0.83396168  0.36442541  0.55802512     0.78200
C1618       C  0.83042180  0.47057515  0.55602205     0.79300
C1619       C  0.73566187  0.37139237  0.62394684     0.78400
C1620       C  0.80641301  0.02195037  0.73263033     0.81400
N1621       N  0.81969490  0.02848424  0.76482365    -0.76900
C1622       C  0.83696735  0.01454019  0.77660395     0.83900
N1623       N  0.84186263  0.49439698  0.75484531    -0.76800
C1624       C  0.82834274  0.48817598  0.72210888     0.84000
N1625       N  0.81114440  0.00219411  0.71138360    -0.78500
C1626       C  0.71415803  0.18676315  0.72987199     0.81400
N1627       N  0.70562188  0.17360105  0.76208802    -0.76900
C1628       C  0.67377637  0.15813951  0.77255793     0.83900
N1629       N  0.65005435  0.15523453  0.74989741    -0.76800
C1630       C  0.65912453  0.16921375  0.71758094     0.84000
N1631       N  0.69091670  0.18426191  0.70768676    -0.78500
Zn1632     Zn  0.59801535  0.19959202  0.58530855     1.49700
Zn1633     Zn  0.59919148  0.19927156  0.66339150     1.49400
Zn1634     Zn  0.53378951  0.13924049  0.62546041     1.49100
Zn1635     Zn  0.60110931  0.13896447  0.62162146     1.49500
O1636       O  0.58250463  0.16847769  0.62414249    -1.82900
O1637       O  0.61901831  0.24959142  0.59595362    -0.73500
O1638       O  0.56101674  0.19083386  0.69104514    -0.73400
O1639       O  0.51710552  0.14900728  0.58014137    -0.72900
O1640       O  0.62530364  0.24977296  0.65295079    -0.73600
O1641       O  0.56178611  0.18695210  0.55173610    -0.73200
O1642       O  0.51447711  0.14898573  0.67008894    -0.73700
O1643       O  0.56555340  0.08931264  0.62251911    -0.73100
O1644       O  0.62558851  0.18769041  0.69449374    -0.73900
O1645       O  0.51863795  0.08937405  0.62571144    -0.73300
O1646       O  0.62912626  0.14847016  0.66540720    -0.73700
O1647       O  0.62935348  0.14829194  0.57665367    -0.73600
O1648       O  0.63000432  0.19359431  0.55914330    -0.73400
C1649       C  0.62950301  0.26547241  0.62449439     0.78400
C1650       C  0.53014990  0.17141172  0.69296680     0.78800
C1651       C  0.53099546  0.16733815  0.55351431     0.77800
C1652       C  0.53410903  0.07365864  0.62436005     0.78200
C1653       C  0.63564946  0.16740108  0.69181761     0.79300
C1654       C  0.63906557  0.17260455  0.55574925     0.78400
C1655       C  0.97608809  0.19211740  0.51721615     0.81400
N1656       N  0.99572086  0.18734942  0.53862275    -0.76900
C1657       C  0.51078688  0.17124266  0.52761350     0.83900
N1658       N  0.50564794  0.15875099  0.99441904    -0.76800
C1659       C  0.98549643  0.16356762  0.97255223     0.84000
N1660       N  0.97065964  0.17991718  0.98459165    -0.78500
C1661       C  0.98046007  0.01949880  0.87439931     0.81400
N1662       N  0.51414792  0.03599394  0.87488598    -0.76900
C1663       C  0.53082295  0.01928483  0.87494570     0.83900
N1664       N  0.51348209  0.48568897  0.87445017    -0.76800
C1665       C  0.97988024  0.46869185  0.87394752     0.84000
N1666       N  0.96355052  0.48576887  0.87396228    -0.78500
Zn1667     Zn  0.63280322  0.06936671  0.83382692     1.49700
Zn1668     Zn  0.69363619  0.13129984  0.87417698     1.49400
Zn1669     Zn  0.63293901  0.06810052  0.91629091     1.49100
Zn1670     Zn  0.69322579  0.06720338  0.87534391     1.49500
O1671       O  0.66281914  0.08391495  0.87484088    -1.82900
O1672       O  0.64279528  0.10827033  0.80326014    -0.73500
O1673       O  0.68461255  0.14811656  0.91795279    -0.73400
O1674       O  0.58315676  0.04495940  0.90412377    -0.72900
O1675       O  0.68593126  0.14992923  0.82993778    -0.73600
O1676       O  0.58320007  0.04478319  0.84621229    -0.73200
O1677       O  0.64516733  0.10667228  0.94883466    -0.73700
O1678       O  0.68627527  0.04256057  0.91995699    -0.73100
O1679       O  0.74394337  0.14768111  0.87470614    -0.73900
O1680       O  0.64137066  0.03747166  0.94536556    -0.73300
O1681       O  0.74364735  0.10091281  0.87327590    -0.73700
O1682       O  0.68219618  0.03809869  0.83403004    -0.73600
O1683       O  0.64269893  0.03999209  0.80372521    -0.73400
C1684       C  0.66593487  0.13820564  0.80429254     0.78400
C1685       C  0.66675098  0.13700331  0.94525000     0.78800
C1686       C  0.56760419  0.03739376  0.87512915     0.77800
C1687       C  0.66557775  0.03264778  0.94489316     0.78200
C1688       C  0.75970240  0.13229017  0.87389548     0.79300
C1689       C  0.66319668  0.03017756  0.80764525     0.78400
C1690       C  0.69205074  0.21729555  0.98261501     0.81400
N1691       N  0.68888076  0.19305782  0.96175395    -0.76900
C1692       C  0.67157715  0.16127805  0.97193888     0.83900
N1693       N  0.65657871  0.15339654  0.50395041    -0.76800
C1694       C  0.66058992  0.17824454  0.52564868     0.84000
N1695       N  0.67773726  0.20983561  0.51423546    -0.78500
C1696       C  0.51456250  0.17724068  0.72319448     0.81400
N1697       N  0.52991451  0.20885309  0.73465238    -0.76900
C1698       C  0.52390610  0.21635573  0.76663372     0.83900
N1699       N  0.50318793  0.19221891  0.78805503    -0.76800
C1700       C  0.98761727  0.16059647  0.77757784     0.84000
N1701       N  0.99340270  0.15254064  0.74504876    -0.78500
Zn1702     Zn  0.89949160  0.10053574  0.83514889     1.49700
Zn1703     Zn  0.96408397  0.10486055  0.87517661     1.49400
Zn1704     Zn  0.90032261  0.10145334  0.91327685     1.49100
Zn1705     Zn  0.89610877  0.03705320  0.87361279     1.49500
O1706       O  0.91541194  0.08563322  0.87425780    -1.82900
O1707       O  0.93632787  0.12595298  0.80231824    -0.73500
O1708       O  0.98433747  0.13414957  0.91983532    -0.73400
O1709       O  0.87291972  0.12411228  0.90287648    -0.72900
O1710       O  0.98071066  0.13140102  0.82980637    -0.73600
O1711       O  0.87595373  0.12710449  0.84550835    -0.73200
O1712       O  0.93911916  0.13254863  0.93935261    -0.73700
O1713       O  0.87018572  0.02073652  0.91918270    -0.73100
O1714       O  0.97836117  0.06962740  0.87499359    -0.73900
O1715       O  0.87579447  0.06504843  0.94688812    -0.73300
O1716       O  0.93086763  0.02241185  0.87369605    -0.73700
O1717       O  0.86651416  0.01650859  0.82936559    -0.73600
O1718       O  0.86878299  0.06166754  0.80863218    -0.73400
C1719       C  0.96700119  0.13660728  0.80366681     0.78400
C1720       C  0.96959603  0.14262229  0.94187373     0.78800
C1721       C  0.86643582  0.13332688  0.87417082     0.77800
C1722       C  0.86528619  0.03441962  0.94554067     0.78200
C1723       C  0.96232460  0.03813728  0.87435713     0.79300
C1724       C  0.85836088  0.03107785  0.80679329     0.78400
C1725       C  0.52622960  0.31575274  0.98078304     0.81400
N1726       N  0.50501496  0.31783219  0.95901989    -0.76900
C1727       C  0.98951122  0.33411063  0.96848965     0.83900
N1728       N  0.99599545  0.34935148  0.50019531    -0.76800
C1729       C  0.51671368  0.34627577  0.52272743     0.84000
N1730       N  0.53209702  0.32997076  0.51252161    -0.78500
Zn1731     Zn  0.70990198  0.36447525  0.85935581     1.49700
Zn1732     Zn  0.63641885  0.34601789  0.86086225     1.49400
Zn1733     Zn  0.65407264  0.29016329  0.86123703     1.49100
Zn1734     Zn  0.66667841  0.33370085  0.92173716     1.49500
O1735       O  0.66691291  0.33355125  0.87336949    -1.82900
O1736       O  0.70775368  0.39389883  0.82367264    -0.73500
O1737       O  0.60695095  0.31456848  0.82570907    -0.73400
O1738       O  0.68459418  0.29152034  0.82518663    -0.72900
O1739       O  0.66004436  0.39035362  0.83762807    -0.73600
O1740       O  0.72982994  0.34006484  0.83614135    -0.73200
O1741       O  0.60916616  0.26950143  0.83891571    -0.73700
O1742       O  0.68755624  0.30994630  0.93912030    -0.73100
O1743       O  0.60622545  0.33928375  0.90168211    -0.73900
O1744       O  0.66240703  0.26781769  0.90219429    -0.73300
O1745       O  0.62154404  0.31356296  0.93924515    -0.73700
O1746       O  0.69161558  0.37888383  0.93770549    -0.73600
O1747       O  0.73329484  0.39503625  0.90028909    -0.73400
C1748       C  0.68727218  0.40370123  0.82102027     0.78400
C1749       C  0.59644970  0.28405944  0.82272708     0.78800
C1750       C  0.71498937  0.31201527  0.82098784     0.77800
C1751       C  0.68035476  0.28154607  0.92901178     0.78200
C1752       C  0.60131318  0.32191156  0.92901746     0.79300
C1753       C  0.72024350  0.39964405  0.92732690     0.78400
Zn1754     Zn  0.93098420  0.36627434  0.83294368     1.49700
Zn1755     Zn  0.92921342  0.36663848  0.91520962     1.49400
Zn1756     Zn  0.86739591  0.30540673  0.87493357     1.49100
Zn1757     Zn  0.93169216  0.30606384  0.87424740     1.49500
O1758       O  0.91487628  0.33637971  0.87434271    -1.82900
O1759       O  0.95405011  0.41619045  0.84492386    -0.73500
O1760       O  0.89026395  0.35654702  0.94544877    -0.73400
O1761       O  0.85064732  0.31459446  0.83118018    -0.72900
O1762       O  0.95381716  0.41630065  0.90280778    -0.73600
O1763       O  0.89243405  0.35378062  0.80035313    -0.73200
O1764       O  0.84874390  0.31270405  0.91950042    -0.73700
O1765       O  0.89793023  0.25559592  0.87557737    -0.73100
O1766       O  0.95838403  0.35700102  0.94598676    -0.73900
O1767       O  0.85105997  0.25511316  0.87391397    -0.73300
O1768       O  0.96002672  0.31705564  0.91633494    -0.73700
O1769       O  0.95742753  0.31352083  0.83013188    -0.73600
O1770       O  0.96198221  0.35796621  0.80419664    -0.73400
C1771       C  0.96143606  0.43185088  0.87385864     0.78400
C1772       C  0.86052631  0.33298494  0.94491223     0.78800
C1773       C  0.86202447  0.33236527  0.80384964     0.77800
C1774       C  0.86654714  0.23945142  0.87466957     0.78200
C1775       C  0.96800413  0.33631703  0.94252906     0.79300
C1776       C  0.96741973  0.33416452  0.80512055     0.78400
C1777       C  0.78213400  0.30674090  0.76498624     0.81400
N1778       N  0.80608620  0.30997087  0.78638426    -0.77300
C1779       C  0.83804768  0.32757428  0.77682857     0.83900
N1780       N  0.84639554  0.34281805  0.74497957    -0.76800
C1781       C  0.82188641  0.33884725  0.72280841     0.84000
N1782       N  0.79007793  0.32136984  0.73354192    -0.78500
C1783       C  0.82457734  0.48600085  0.52558617     0.81400
N1784       N  0.84932335  0.00789332  0.50419437    -0.76900
C1785       C  0.84137780  0.01363221  0.97156201     0.83900
N1786       N  0.80996764  0.49723032  0.96049141    -0.76800
C1787       C  0.78583072  0.47575097  0.98134775     0.84000
N1788       N  0.79315864  0.46985966  0.51346647    -0.78500
C1789       C  0.68661890  0.47452845  0.76785186     0.81400
N1790       N  0.68347286  0.49468897  0.79031356    -0.76900
C1791       C  0.66592285  0.00908570  0.78157789     0.83900
N1792       N  0.65055014  0.00255423  0.75001310    -0.76800
C1793       C  0.65446101  0.48278414  0.72693312     0.84000
N1794       N  0.67204912  0.46849105  0.73627998    -0.78500
C1795       C  0.84783290  0.15155823  0.87412740     0.81400
N1796       N  0.81410036  0.13472327  0.87392635    -0.76900
C1797       C  0.79694842  0.15106268  0.87388417     0.83900
N1798       N  0.81419204  0.18478785  0.87413677    -0.76800
C1799       C  0.84791877  0.20221695  0.87439586     0.84000
N1800       N  0.86444349  0.18526560  0.87434884    -0.78500
C1801       C  0.75204303  0.29979539  0.78058752    -0.12100
C1802       C  0.73304284  0.30308945  0.79833977    -0.13600
C1803       C  0.73838248  0.42854191  0.94750983    -0.12100
C1804       C  0.75661567  0.45162781  0.96502518    -0.13600
C1805       C  0.69488135  0.43060518  0.79850724    -0.12100
C1806       C  0.69575618  0.45239608  0.78165806    -0.13600
C1807       C  0.57270020  0.31227123  0.94943189    -0.12100
C1808       C  0.54972178  0.30905015  0.96593524    -0.13600
C1809       C  0.56945369  0.26561395  0.80008694    -0.12100
C1810       C  0.54722059  0.24646481  0.78216277    -0.13600
C1811       C  0.69771624  0.24658907  0.96620879    -0.12100
C1812       C  0.69228557  0.26446223  0.94903195    -0.13600
C1813       C  0.76335083  0.18836348  0.69925618    -0.12100
C1814       C  0.74418918  0.19263883  0.71536655    -0.13600
C1815       C  0.79990317  0.04491888  0.71647864    -0.12100
C1816       C  0.80525626  0.06805776  0.69901138    -0.13600
C1817       C  0.93099931  0.19499821  0.55153338    -0.12100
C1818       C  0.95292007  0.19855699  0.53303001    -0.13600
C1819       C  0.92903250  0.23462399  0.70414690    -0.12100
C1820       C  0.95195745  0.25460708  0.72082916    -0.13600
C1821       C  0.76663338  0.07043996  0.54720826    -0.12100
C1822       C  0.74592601  0.04911489  0.52942803    -0.13600
C1823       C  0.80754638  0.25510372  0.53519674    -0.12100
C1824       C  0.80946089  0.23510227  0.55250080    -0.13600
C1825       C  0.51508645  0.98600087  0.12575109     0.81400
N1826       N  0.53181550  0.51964631  0.12502404    -0.76900
C1827       C  0.51541126  0.53662284  0.12499292     0.83900
N1828       N  0.98169331  0.51939350  0.12555208    -0.76800
C1829       C  0.96447181  0.98568760  0.12618716     0.84000
N1830       N  0.98144934  0.96930605  0.12633564    -0.78500
C1831       C  0.64784382  0.85325381  0.12397839     0.81400
N1832       N  0.63115906  0.81946213  0.12415325    -0.76900
C1833       C  0.64768132  0.80250058  0.12437038     0.83900
N1834       N  0.68130305  0.81973102  0.12416599    -0.76800
C1835       C  0.69859915  0.85334704  0.12380636     0.84000
N1836       N  0.68166833  0.86992708  0.12386039    -0.78500
C1837       C  0.81431081  0.78546962  0.02075058     0.81400
N1838       N  0.82632928  0.79353105  0.48802606    -0.76900
C1839       C  0.84121212  0.82522768  0.47708206     0.83900
N1840       N  0.84464991  0.84919120  0.49969612    -0.76800
C1841       C  0.83198455  0.84061651  0.03257253     0.84000
N1842       N  0.81747273  0.80899600  0.04294981    -0.78500
Zn1843     Zn  0.56374586  0.87233928  0.12410725     1.49700
Zn1844     Zn  0.56503037  0.93460183  0.08430992     1.49400
Zn1845     Zn  0.56592117  0.93507059  0.16594097     1.49100
Zn1846     Zn  0.62803297  0.93669655  0.12542365     1.49500
O1847       O  0.58052821  0.91976573  0.12492792    -1.82900
O1848       O  0.53821995  0.85467381  0.07944011    -0.73500
O1849       O  0.54113109  0.96011183  0.09659781    -0.73400
O1850       O  0.53743169  0.89575654  0.19655870    -0.72900
O1851       O  0.53522735  0.89567200  0.05401495    -0.73600
O1852       O  0.53570016  0.85422012  0.16660628    -0.73200
O1853       O  0.54075631  0.95947925  0.15440996    -0.73700
O1854       O  0.64585123  0.96155100  0.17016648    -0.73100
O1855       O  0.60436194  0.96331096  0.05374662    -0.73900
O1856       O  0.60496957  0.96441289  0.19606217    -0.73300
O1857       O  0.64609638  0.96544015  0.08367206    -0.73700
O1858       O  0.64473264  0.90315007  0.12344758    -0.73600
O1859       O  0.59779513  0.85611782  0.12505276    -0.73400
C1860       C  0.52922196  0.86613752  0.05439064     0.78400
C1861       C  0.53327639  0.96764723  0.12558751     0.78800
C1862       C  0.52810750  0.86538236  0.19312766     0.77800
C1863       C  0.63446182  0.97031779  0.19545081     0.78200
C1864       C  0.63482643  0.97302497  0.05728146     0.79300
C1865       C  0.62922654  0.87174301  0.12413452     0.78400
C1866       C  0.67314717  0.51993378  0.47605898     0.81400
N1867       N  0.64943547  0.00041765  0.49951322    -0.76900
C1868       C  0.65857217  0.99356352  0.03067303     0.83900
N1869       N  0.69083833  0.50730503  0.03860635    -0.76800
C1870       C  0.71419991  0.52721492  0.01583411     0.84000
N1871       N  0.70539291  0.53365601  0.48469159    -0.78500
C1872       C  0.98096698  0.82692518  0.27434370     0.81400
N1873       N  0.50050912  0.85068023  0.25090628    -0.76900
C1874       C  0.50788723  0.84163150  0.21994342     0.83900
N1875       N  0.99450117  0.80939348  0.21211734    -0.76800
C1876       C  0.97448661  0.78598541  0.23478216     0.84000
N1877       N  0.96766784  0.79473721  0.26576038    -0.78500
Zn1878     Zn  0.79227926  0.65304905  0.11201792     1.49700
Zn1879     Zn  0.86613695  0.70813588  0.11486945     1.49400
Zn1880     Zn  0.83410988  0.66437507  0.17441944     1.49100
Zn1881     Zn  0.84618817  0.63378525  0.11227474     1.49500
O1882       O  0.83481628  0.66474491  0.12610847    -1.82900
O1883       O  0.79598283  0.68517650  0.07682769    -0.73500
O1884       O  0.89668615  0.73013435  0.15611462    -0.73400
O1885       O  0.80986980  0.68516056  0.19058503    -0.72900
O1886       O  0.84333116  0.72974775  0.09262693    -0.73600
O1887       O  0.76876020  0.66010793  0.15232856    -0.73200
O1888       O  0.87895728  0.68802236  0.19298160    -0.73700
O1889       O  0.83585427  0.60169899  0.15248021    -0.73100
O1890       O  0.89478781  0.70652917  0.07889955    -0.73900
O1891       O  0.81183350  0.61907086  0.19014121    -0.73300
O1892       O  0.89139776  0.65836163  0.09037296    -0.73700
O1893       O  0.81571085  0.60605441  0.07483952    -0.73600
O1894       O  0.77113011  0.60905271  0.08785407    -0.73400
C1895       C  0.81659172  0.71576863  0.07509597     0.78400
C1896       C  0.90043006  0.71665636  0.18325748     0.78800
C1897       C  0.78157085  0.67757498  0.17963762     0.77800
C1898       C  0.81800173  0.59745438  0.17933882     0.78200
C1899       C  0.90450944  0.68617807  0.07479388     0.79300
C1900       C  0.78541445  0.59638931  0.07111177     0.78400
Zn1901     Zn  0.80123194  0.90191799  0.16357771     1.49700
Zn1902     Zn  0.86165907  0.96678124  0.12422548     1.49400
Zn1903     Zn  0.86238105  0.89956655  0.12796866     1.49100
Zn1904     Zn  0.80224636  0.90141326  0.08561649     1.49500
O1905       O  0.83271293  0.91799555  0.12510839    -1.82900
O1906       O  0.81355566  0.93761363  0.19763463    -0.73500
O1907       O  0.91161945  0.98224971  0.12481571    -0.73400
O1908       O  0.85278430  0.87105913  0.17271668    -0.72900
O1909       O  0.85114808  0.98276018  0.16957527    -0.73600
O1910       O  0.80683303  0.86956140  0.18927214    -0.73200
O1911       O  0.91191438  0.93543371  0.12776195    -0.73700
O1912       O  0.81361404  0.87440016  0.05520395    -0.73100
O1913       O  0.85226907  0.98636859  0.07940089    -0.73900
O1914       O  0.85313832  0.87139005  0.08430096    -0.73300
O1915       O  0.81137736  0.93962490  0.05768084    -0.73700
O1916       O  0.75158375  0.87597980  0.09556076    -0.73600
O1917       O  0.75133197  0.88118902  0.15266935    -0.73400
C1918       C  0.83281452  0.96846463  0.19609252     0.78400
C1919       C  0.92744414  0.96689280  0.12631789     0.78800
C1920       C  0.82796407  0.86074442  0.19300213     0.77800
C1921       C  0.83395867  0.86441353  0.05803173     0.78200
C1922       C  0.83041831  0.97056289  0.05600616     0.79300
C1923       C  0.73565958  0.87138953  0.12394347     0.78400
C1924       C  0.80642256  0.52195471  0.23263570     0.81400
N1925       N  0.81969555  0.52848187  0.26483297    -0.76900
C1926       C  0.83695846  0.51452962  0.27661958     0.83900
N1927       N  0.84187391  0.99441017  0.25482720    -0.76800
C1928       C  0.82834656  0.98818344  0.22209424     0.84000
N1929       N  0.81115161  0.50219509  0.21139220    -0.78500
C1930       C  0.71415958  0.68674259  0.22985071     0.81400
N1931       N  0.70562369  0.67358410  0.26206816    -0.76900
C1932       C  0.67377882  0.65812686  0.27253964     0.83900
N1933       N  0.65005713  0.65522367  0.24987960    -0.76800
C1934       C  0.65912706  0.66919890  0.21756114     0.84000
N1935       N  0.69091864  0.68424192  0.20766514    -0.78500
Zn1936     Zn  0.59801826  0.69959555  0.08530439     1.49700
Zn1937     Zn  0.59919074  0.69926306  0.16338643     1.49400
Zn1938     Zn  0.53379133  0.63923595  0.12544655     1.49100
Zn1939     Zn  0.60111221  0.63896352  0.12160141     1.49500
O1940       O  0.58250624  0.66847503  0.12413236    -1.82900
O1941       O  0.61901390  0.74959221  0.09595594    -0.73500
O1942       O  0.56101311  0.69081875  0.19104081    -0.73400
O1943       O  0.51710876  0.64900279  0.08012591    -0.72900
O1944       O  0.62530254  0.74976766  0.15295202    -0.73600
O1945       O  0.56179170  0.68695563  0.05173029    -0.73200
O1946       O  0.51447472  0.64897589  0.17007520    -0.73700
O1947       O  0.56555821  0.58931018  0.12249888    -0.73100
O1948       O  0.62558791  0.68767672  0.19448375    -0.73900
O1949       O  0.51864299  0.58937134  0.12569848    -0.73300
O1950       O  0.62913199  0.64846621  0.16538390    -0.73700
O1951       O  0.62935458  0.64829846  0.07663145    -0.73600
O1952       O  0.63001347  0.69360908  0.05913731    -0.73400
C1953       C  0.62949959  0.76547031  0.12449806     0.78400
C1954       C  0.53014575  0.67139694  0.19295823     0.78800
C1955       C  0.53100152  0.66733843  0.05350269     0.77800
C1956       C  0.53411403  0.57365615  0.12434484     0.78200
C1957       C  0.63565238  0.66739066  0.19179957     0.79300
C1958       C  0.63907140  0.67261746  0.05573498     0.78400
C1959       C  0.97611147  0.69213682  0.01719871     0.81400
N1960       N  0.99573898  0.68736266  0.03860708    -0.76900
C1961       C  0.51079665  0.67124688  0.02760078     0.83900
N1962       N  0.50565481  0.65875380  0.49440748    -0.76800
C1963       C  0.98550923  0.66357687  0.47253826     0.84000
N1964       N  0.97067929  0.67993407  0.48457489    -0.78500
C1965       C  0.98045850  0.51949289  0.37440075     0.81400
N1966       N  0.51414637  0.53598980  0.37488946    -0.76900
C1967       C  0.53082367  0.51928299  0.37494559     0.83900
N1968       N  0.51347895  0.98568957  0.37445631    -0.76800
C1969       C  0.97987703  0.96869472  0.37395602     0.84000
N1970       N  0.96354988  0.98577414  0.37396623    -0.78500
Zn1971     Zn  0.63280367  0.56936411  0.33382789     1.49700
Zn1972     Zn  0.69363870  0.63130242  0.37416801     1.49400
Zn1973     Zn  0.63294169  0.56810887  0.41629173     1.49100
Zn1974     Zn  0.69322641  0.56720357  0.37535043     1.49500
O1975       O  0.66282098  0.58391713  0.37484094    -1.82900
O1976       O  0.64279622  0.60826282  0.30325126    -0.73500
O1977       O  0.68461660  0.64812855  0.41793817    -0.73400
O1978       O  0.58315783  0.54496256  0.40412498    -0.72900
O1979       O  0.68593436  0.64992478  0.32992250    -0.73600
O1980       O  0.58320119  0.54478261  0.34621360    -0.73200
O1981       O  0.64517043  0.60668763  0.44882323    -0.73700
O1982       O  0.68628002  0.54257137  0.41997143    -0.73100
O1983       O  0.74394518  0.64768170  0.37469977    -0.73900
O1984       O  0.64137801  0.53748902  0.44537927    -0.73300
O1985       O  0.74364840  0.60091272  0.37327632    -0.73700
O1986       O  0.68219078  0.53808761  0.33404340    -0.73600
O1987       O  0.64269481  0.53998134  0.30373605    -0.73400
C1988       C  0.66593707  0.63819783  0.30427830     0.78400
C1989       C  0.66675434  0.63701828  0.44523513     0.78800
C1990       C  0.56760517  0.53739424  0.37513020     0.77800
C1991       C  0.66558472  0.53266447  0.44490972     0.78200
C1992       C  0.75970385  0.63229034  0.37389246     0.79300
C1993       C  0.66318948  0.53016343  0.30765959     0.78400
C1994       C  0.69205073  0.71731115  0.48259796     0.81400
N1995       N  0.68888147  0.69307405  0.46173602    -0.76900
C1996       C  0.67157958  0.66129413  0.47192167     0.83900
N1997       N  0.65658459  0.65341379  0.00393403    -0.76800
C1998       C  0.66059476  0.67826065  0.02563280     0.84000
N1999       N  0.67774037  0.70985186  0.01422028    -0.78500
C2000       C  0.51455495  0.67722312  0.22318493     0.81400
N2001       N  0.52990242  0.70883582  0.23464137    -0.76900
C2002       C  0.52388968  0.71633826  0.26662080     0.83900
N2003       N  0.50317175  0.69220102  0.28804169    -0.76800
C2004       C  0.98760604  0.66057818  0.27756664     0.84000
N2005       N  0.99339599  0.65252226  0.24503943    -0.78500
Zn2006     Zn  0.89948701  0.60052814  0.33515351     1.49700
Zn2007     Zn  0.96408161  0.60485388  0.37517289     1.49400
Zn2008     Zn  0.90032687  0.60145705  0.41328005     1.49100
Zn2009     Zn  0.89610592  0.53704812  0.37362524     1.49500
O2010       O  0.91541026  0.58562886  0.37426219    -1.82900
O2011       O  0.93631886  0.62593904  0.30231485    -0.73500
O2012       O  0.98434096  0.63415021  0.41982539    -0.73400
O2013       O  0.87292464  0.62411671  0.40287931    -0.72900
O2014       O  0.98070363  0.63138559  0.32979645    -0.73600
O2015       O  0.87595061  0.62709904  0.34551065    -0.73200
O2016       O  0.93912705  0.63255619  0.43934706    -0.73700
O2017       O  0.87018900  0.52074162  0.41920005    -0.73100
O2018       O  0.97835752  0.56962007  0.37499384    -0.73900
O2019       O  0.87580204  0.56505829  0.44689912    -0.73300
O2020       O  0.93086412  0.52240422  0.37370536    -0.73700
O2021       O  0.86650471  0.51649791  0.32938267    -0.73600
O2022       O  0.86877577  0.56165673  0.30864569    -0.73400
C2023       C  0.96699181  0.63659015  0.30365793     0.78400
C2024       C  0.96960383  0.64262825  0.44186367     0.78800
C2025       C  0.86643726  0.63332700  0.37417290     0.77800
C2026       C  0.86529242  0.53442903  0.44555620     0.78200
C2027       C  0.96232129  0.53812989  0.37436126     0.79300
C2028       C  0.85835136  0.53106656  0.30680956     0.78400
C2029       C  0.52620197  0.81573301  0.48080019     0.81400
N2030       N  0.50498913  0.81781611  0.45903803    -0.76900
C2031       C  0.98949238  0.83410197  0.46850635     0.83900
N2032       N  0.99598305  0.84934677  0.00021015    -0.76800
C2033       C  0.51669897  0.84626671  0.02274224     0.84000
N2034       N  0.53207568  0.82995502  0.01253717    -0.78500
Zn2035     Zn  0.70986997  0.86447193  0.35935452     1.49700
Zn2036     Zn  0.63638190  0.84600811  0.36085863     1.49400
Zn2037     Zn  0.65404842  0.79016220  0.36123122     1.49100
Zn2038     Zn  0.66665097  0.83370204  0.42173444     1.49500
O2039       O  0.66688075  0.83354766  0.37336650    -1.82900
O2040       O  0.70771889  0.89389180  0.32367196    -0.73500
O2041       O  0.60691753  0.81455602  0.32570440    -0.73400
O2042       O  0.68457284  0.79152290  0.32518077    -0.72900
O2043       O  0.66000710  0.89034460  0.33762165    -0.73600
O2044       O  0.72980464  0.84006753  0.33614319    -0.73200
O2045       O  0.60914199  0.76949360  0.33890901    -0.73700
O2046       O  0.68753482  0.80995196  0.43911329    -0.73100
O2047       O  0.60618568  0.83926684  0.40168090    -0.73900
O2048       O  0.66238955  0.76782205  0.40218765    -0.73300
O2049       O  0.62151845  0.81356032  0.43924730    -0.73700
O2050       O  0.69158729  0.87888666  0.43770176    -0.73600
O2051       O  0.73326482  0.89503394  0.40028470    -0.73400
C2052       C  0.68723659  0.90369273  0.32101615     0.78400
C2053       C  0.59642206  0.78404823  0.32272027     0.78800
C2054       C  0.71496841  0.81201935  0.32098728     0.77800
C2055       C  0.68033878  0.78155364  0.42900336     0.78200
C2056       C  0.60128072  0.82189959  0.42901912     0.79300
C2057       C  0.72021589  0.89964444  0.42732254     0.78400
Zn2058     Zn  0.93097656  0.86627859  0.33295152     1.49700
Zn2059     Zn  0.92920610  0.86663995  0.41521741     1.49400
Zn2060     Zn  0.86739110  0.80540552  0.37493655     1.49100
Zn2061     Zn  0.93168943  0.80606860  0.37425318     1.49500
O2062       O  0.91487090  0.83638215  0.37434886    -1.82900
O2063       O  0.95404162  0.91619335  0.34493386    -0.73500
O2064       O  0.89025330  0.85654617  0.44545125    -0.73400
O2065       O  0.85064001  0.81459426  0.33118542    -0.72900
O2066       O  0.95381272  0.91630352  0.40281780    -0.73600
O2067       O  0.89242570  0.85378523  0.30036163    -0.73200
O2068       O  0.84873768  0.81269882  0.41950319    -0.73700
O2069       O  0.89793045  0.75559871  0.37557807    -0.73100
O2070       O  0.95837209  0.85699972  0.44600047    -0.73900
O2071       O  0.85105861  0.75511258  0.37391525    -0.73300
O2072       O  0.96001658  0.81705670  0.41634617    -0.73700
O2073       O  0.95743155  0.81353414  0.33014032    -0.73600
O2074       O  0.96197751  0.85797558  0.30420419    -0.73400
C2075       C  0.96143035  0.93185379  0.37386857     0.78400
C2076       C  0.86051744  0.83298042  0.44491449     0.78800
C2077       C  0.86201641  0.83236835  0.30385704     0.77800
C2078       C  0.86654723  0.73945237  0.37467014     0.78200
C2079       C  0.96799075  0.83631441  0.44254286     0.79300
C2080       C  0.96742149  0.83417828  0.30512923     0.78400
C2081       C  0.78212611  0.80675382  0.26499714     0.81400
N2082       N  0.80607768  0.80998173  0.28639525    -0.77300
C2083       C  0.83803914  0.82758044  0.27683765     0.83900
N2084       N  0.84638751  0.84282188  0.24498742    -0.76800
C2085       C  0.82187902  0.83885361  0.22281687     0.84000
N2086       N  0.79007068  0.82138055  0.23355174    -0.78500
C2087       C  0.82457345  0.98598708  0.02556914     0.81400
N2088       N  0.84932857  0.50790841  0.00421309    -0.76900
C2089       C  0.84138357  0.51364520  0.47157884     0.83900
N2090       N  0.80996045  0.99722000  0.46047635    -0.76800
C2091       C  0.78582380  0.97574275  0.48133485     0.84000
N2092       N  0.79315382  0.96984926  0.01345268    -0.78500
C2093       C  0.68662190  0.97453849  0.26783914     0.81400
N2094       N  0.68347730  0.99470054  0.29029961    -0.76900
C2095       C  0.66591145  0.50906676  0.28159488     0.83900
N2096       N  0.65053276  0.50252957  0.25003310    -0.76800
C2097       C  0.65447914  0.98280816  0.22691315     0.84000
N2098       N  0.67205917  0.96850774  0.23626391    -0.78500
C2099       C  0.84783462  0.65155874  0.37412828     0.81400
N2100       N  0.81410202  0.63472371  0.37392528    -0.76900
C2101       C  0.79694994  0.65106281  0.37388187     0.83900
N2102       N  0.81419330  0.68478797  0.37413498    -0.76800
C2103       C  0.84792007  0.70221753  0.37439583     0.84000
N2104       N  0.86444511  0.68526645  0.37435043    -0.78500
C2105       C  0.75203382  0.79980748  0.28059643    -0.12100
C2106       C  0.73302805  0.80309733  0.29834371    -0.13600
C2107       C  0.73835996  0.92854177  0.44750489    -0.12100
C2108       C  0.75660222  0.95162605  0.46501688    -0.13600
C2109       C  0.69484991  0.93059720  0.29850266    -0.12100
C2110       C  0.69574005  0.95239384  0.28165058    -0.13600
C2111       C  0.57266876  0.81225458  0.44943773    -0.12100
C2112       C  0.54969238  0.80902989  0.46594812    -0.13600
C2113       C  0.56942931  0.76560032  0.30007689    -0.12100
C2114       C  0.54719986  0.74644908  0.28215018    -0.13600
C2115       C  0.69771416  0.74660436  0.46619306    -0.12100
C2116       C  0.69227812  0.76447538  0.44901961    -0.13600
C2117       C  0.76336035  0.68835177  0.19924137    -0.12100
C2118       C  0.74419253  0.69262075  0.21534767    -0.13600
C2119       C  0.79992962  0.54493274  0.21647875    -0.12100
C2120       C  0.80529243  0.56807305  0.19900855    -0.13600
C2121       C  0.93102590  0.69501966  0.05151798    -0.12100
C2122       C  0.95294610  0.69858048  0.03301225    -0.13600
C2123       C  0.92904909  0.73464716  0.20414312    -0.12100
C2124       C  0.95196947  0.75462970  0.22083112    -0.13600
C2125       C  0.76665574  0.57043188  0.04721113    -0.12100
C2126       C  0.74593914  0.54911040  0.02943528    -0.13600
C2127       C  0.80754588  0.75509266  0.03519295    -0.12100
C2128       C  0.80946431  0.73509142  0.05249304    -0.13600
C2129       C  0.51508592  0.98600083  0.62575090     0.81400
N2130       N  0.53181503  0.51964623  0.62502405    -0.76900
C2131       C  0.51541068  0.53662272  0.62499295     0.83900
N2132       N  0.98169275  0.51939337  0.62555205    -0.76800
C2133       C  0.96447126  0.98568747  0.62618689     0.84000
N2134       N  0.98144883  0.96930599  0.62633531    -0.78500
C2135       C  0.64784352  0.85325390  0.62397863     0.81400
N2136       N  0.63115864  0.81946210  0.62415346    -0.76900
C2137       C  0.64768096  0.80250065  0.62437064     0.83900
N2138       N  0.68130260  0.81973096  0.62416637    -0.76800
C2139       C  0.69859877  0.85334702  0.62380682     0.84000
N2140       N  0.68166794  0.86992705  0.62386074    -0.78500
C2141       C  0.81431015  0.78546945  0.52075055     0.81400
N2142       N  0.82632994  0.79353124  0.98802610    -0.76900
C2143       C  0.84121279  0.82522794  0.97708229     0.83900
N2144       N  0.84465061  0.84919138  0.99969634    -0.76800
C2145       C  0.83198383  0.84061639  0.53257234     0.84000
N2146       N  0.81747209  0.80899593  0.54294963    -0.78500
Zn2147     Zn  0.56374559  0.87233933  0.62410724     1.49700
Zn2148     Zn  0.56502996  0.93460170  0.58430985     1.49400
Zn2149     Zn  0.56592100  0.93507078  0.66594096     1.49100
Zn2150     Zn  0.62803267  0.93669658  0.62542390     1.49500
O2151       O  0.58052793  0.91976578  0.62492794    -1.82900
O2152       O  0.53821946  0.85467365  0.57944023    -0.73500
O2153       O  0.54113064  0.96011167  0.59659765    -0.73400
O2154       O  0.53743166  0.89575673  0.69655869    -0.72900
O2155       O  0.53522686  0.89567178  0.55401495    -0.73600
O2156       O  0.53570012  0.85422027  0.66660633    -0.73200
O2157       O  0.54075602  0.95947933  0.65440986    -0.73700
O2158       O  0.64585098  0.96155106  0.67016678    -0.73100
O2159       O  0.60436162  0.96331068  0.55374657    -0.73900
O2160       O  0.60496938  0.96441317  0.69606225    -0.73300
O2161       O  0.64609604  0.96544008  0.58367229    -0.73700
O2162       O  0.64473238  0.90315014  0.62344787    -0.73600
O2163       O  0.59779486  0.85611790  0.62505273    -0.73400
C2164       C  0.52922140  0.86613718  0.55439077     0.78400
C2165       C  0.53327592  0.96764723  0.62558736     0.78800
C2166       C  0.52810755  0.86538259  0.69312770     0.77800
C2167       C  0.63446158  0.97031792  0.69545102     0.78200
C2168       C  0.63482608  0.97302475  0.55728157     0.79300
C2169       C  0.62922616  0.87174300  0.62413468     0.78400
C2170       C  0.67314705  0.51993423  0.97605889     0.81400
N2171       N  0.64943564  0.00041821  0.99951326    -0.76900
C2172       C  0.65857195  0.99356331  0.53067328     0.83900
N2173       N  0.69083797  0.50730514  0.53860680    -0.76800
C2174       C  0.71419983  0.52721522  0.51583486     0.84000
N2175       N  0.70539308  0.53365607  0.98469124    -0.78500
C2176       C  0.98096740  0.82692558  0.77434386     0.81400
N2177       N  0.50050939  0.85068053  0.75090639    -0.76900
C2178       C  0.50788741  0.84163181  0.71994362     0.83900
N2179       N  0.99450138  0.80939373  0.71211747    -0.76800
C2180       C  0.97448688  0.78598572  0.73478253     0.84000
N2181       N  0.96766823  0.79473758  0.76576069    -0.78500
Zn2182     Zn  0.79227894  0.65304980  0.61201887     1.49700
Zn2183     Zn  0.86613675  0.70813643  0.61487012     1.49400
Zn2184     Zn  0.83410942  0.66437583  0.67442053     1.49100
Zn2185     Zn  0.84618764  0.63378587  0.61227574     1.49500
O2186       O  0.83481591  0.66474560  0.62610951    -1.82900
O2187       O  0.79598278  0.68517692  0.57682818    -0.73500
O2188       O  0.89668624  0.73013486  0.65611509    -0.73400
O2189       O  0.80986938  0.68516151  0.69058595    -0.72900
O2190       O  0.84333093  0.72974832  0.59262760    -0.73600
O2191       O  0.76876001  0.66010937  0.65232914    -0.73200
O2192       O  0.87895687  0.68802315  0.69298257    -0.73700
O2193       O  0.83585370  0.60169964  0.65248120    -0.73100
O2194       O  0.89478724  0.70652934  0.57889995    -0.73900
O2195       O  0.81183301  0.61907153  0.69014230    -0.73300
O2196       O  0.89139709  0.65836185  0.59037374    -0.73700
O2197       O  0.81571021  0.60605507  0.57484063    -0.73600
O2198       O  0.77112945  0.60905325  0.58785544    -0.73400
C2199       C  0.81659158  0.71576908  0.57509644     0.78400
C2200       C  0.90042995  0.71665693  0.68325813     0.78800
C2201       C  0.78157062  0.67757633  0.67963826     0.77800
C2202       C  0.81800121  0.59745506  0.67933982     0.78200
C2203       C  0.90450873  0.68617812  0.57479432     0.79300
C2204       C  0.78541375  0.59638987  0.57111297     0.78400
Zn2205     Zn  0.80123165  0.90191812  0.66357788     1.49700
Zn2206     Zn  0.86165856  0.96678127  0.62422528     1.49400
Zn2207     Zn  0.86238055  0.89956657  0.62796839     1.49100
Zn2208     Zn  0.80224576  0.90141321  0.58561650     1.49500
O2209       O  0.83271245  0.91799557  0.62510833    -1.82900
O2210       O  0.81355540  0.93761395  0.69763461    -0.73500
O2211       O  0.91161895  0.98224969  0.62481548    -0.73400
O2212       O  0.85278411  0.87105927  0.67271647    -0.72900
O2213       O  0.85114762  0.98276043  0.66957500    -0.73600
O2214       O  0.80683307  0.86956175  0.68927248    -0.73200
O2215       O  0.91191385  0.93543369  0.62776157    -0.73700
O2216       O  0.81361332  0.87440002  0.55520383    -0.73100
O2217       O  0.85226855  0.98636848  0.57940063    -0.73900
O2218       O  0.85313773  0.87139003  0.58430066    -0.73300
O2219       O  0.81137664  0.93962478  0.55768079    -0.73700
O2220       O  0.75158325  0.87597978  0.59556104    -0.73600
O2221       O  0.75133165  0.88118893  0.65266968    -0.73400
C2222       C  0.83281416  0.96846497  0.69609234     0.78400
C2223       C  0.92744354  0.96689274  0.62631757     0.78800
C2224       C  0.82796411  0.86074474  0.69300221     0.77800
C2225       C  0.83395801  0.86441348  0.55803152     0.78200
C2226       C  0.83041768  0.97056277  0.55600596     0.79300
C2227       C  0.73565914  0.87138946  0.62394382     0.78400
C2228       C  0.80642238  0.52195504  0.73263584     0.81400
N2229       N  0.81969522  0.52848197  0.76483319    -0.76900
C2230       C  0.83695807  0.51452959  0.77661969     0.83900
N2231       N  0.84187353  0.99441030  0.75482715    -0.76800
C2232       C  0.82834635  0.98818385  0.72209413     0.84000
N2233       N  0.81115150  0.50219561  0.71139218    -0.78500
C2234       C  0.71415915  0.68674372  0.72985092     0.81400
N2235       N  0.70562329  0.67358509  0.76206828    -0.76900
C2236       C  0.67377835  0.65812734  0.77253960     0.83900
N2237       N  0.65005661  0.65522381  0.74987948    -0.76800
C2238       C  0.65912643  0.66919915  0.71756106     0.84000
N2239       N  0.69091816  0.68424272  0.70766525    -0.78500
Zn2240     Zn  0.59801778  0.69959559  0.58530438     1.49700
Zn2241     Zn  0.59919006  0.69926298  0.66338634     1.49400
Zn2242     Zn  0.53379072  0.63923586  0.62544653     1.49100
Zn2243     Zn  0.60111161  0.63896345  0.62160138     1.49500
O2244       O  0.58250565  0.66847500  0.62413231    -1.82900
O2245       O  0.61901368  0.74959227  0.59595601    -0.73500
O2246       O  0.56101242  0.69081855  0.69104065    -0.73400
O2247       O  0.51710819  0.64900274  0.58012594    -0.72900
O2248       O  0.62530179  0.74976757  0.65295218    -0.73600
O2249       O  0.56179113  0.68695585  0.55173047    -0.73200
O2250       O  0.51447398  0.64897572  0.67007513    -0.73700
O2251       O  0.56555766  0.58931010  0.62249900    -0.73100
O2252       O  0.62558718  0.68767669  0.69448362    -0.73900
O2253       O  0.51864242  0.58937123  0.62569847    -0.73300
O2254       O  0.62913148  0.64846630  0.66538383    -0.73700
O2255       O  0.62935374  0.64829819  0.57663127    -0.73600
O2256       O  0.63001274  0.69360884  0.55913708    -0.73400
C2257       C  0.62949912  0.76547032  0.62449821     0.78400
C2258       C  0.53014509  0.67139681  0.69295812     0.78800
C2259       C  0.53100094  0.66733855  0.55350282     0.77800
C2260       C  0.53411352  0.57365602  0.62434492     0.78200
C2261       C  0.63565174  0.66739073  0.69179946     0.79300
C2262       C  0.63907051  0.67261709  0.55573473     0.78400
C2263       C  0.97611041  0.69213633  0.51719879     0.81400
N2264       N  0.99573799  0.68736232  0.53860721    -0.76900
C2265       C  0.51079604  0.67124690  0.52760091     0.83900
N2266       N  0.50565513  0.65875360  0.99440740    -0.76800
C2267       C  0.98550970  0.66357688  0.97253823     0.84000
N2268       N  0.97068005  0.67993444  0.98457487    -0.78500
C2269       C  0.98045849  0.51949330  0.87440087     0.81400
N2270       N  0.51414633  0.53599032  0.87488971    -0.76900
C2271       C  0.53082372  0.51928357  0.87494594     0.83900
N2272       N  0.51347915  0.98569017  0.87445656    -0.76800
C2273       C  0.97987732  0.96869521  0.87395622     0.84000
N2274       N  0.96355003  0.98577452  0.87396637    -0.78500
Zn2275     Zn  0.63280360  0.56936463  0.83382797     1.49700
Zn2276     Zn  0.69363877  0.63130313  0.87416775     1.49400
Zn2277     Zn  0.63294187  0.56810970  0.91629181     1.49100
Zn2278     Zn  0.69322642  0.56720424  0.87535043     1.49500
O2279       O  0.66282101  0.58391781  0.87484094    -1.82900
O2280       O  0.64279598  0.60826325  0.80325121    -0.73500
O2281       O  0.68461709  0.64812951  0.91793803    -0.73400
O2282       O  0.58315797  0.54496353  0.90412524    -0.72900
O2283       O  0.68593412  0.64992534  0.82992234    -0.73600
O2284       O  0.58320118  0.54478317  0.84621386    -0.73200
O2285       O  0.64517102  0.60668861  0.94882321    -0.73700
O2286       O  0.68628000  0.54257209  0.91997151    -0.73100
O2287       O  0.74394530  0.64768245  0.87469926    -0.73900
O2288       O  0.64137806  0.53748979  0.94537945    -0.73300
O2289       O  0.74364845  0.60091344  0.87327630    -0.73700
O2290       O  0.68219069  0.53808813  0.83404346    -0.73600
O2291       O  0.64269460  0.53998170  0.80373618    -0.73400
C2292       C  0.66593677  0.63819832  0.80427821     0.78400
C2293       C  0.66675496  0.63701919  0.94523508     0.78800
C2294       C  0.56760523  0.53739499  0.87513050     0.77800
C2295       C  0.66558488  0.53266518  0.94490978     0.78200
C2296       C  0.75970390  0.63229094  0.87389217     0.79300
C2297       C  0.66318935  0.53016378  0.80765975     0.78400
C2298       C  0.69205192  0.71731197  0.98259869     0.81400
N2299       N  0.68888254  0.69307500  0.96173642    -0.76900
C2300       C  0.67158052  0.66129506  0.97192176     0.83900
N2301       N  0.65658368  0.65341312  0.50393387    -0.76800
C2302       C  0.66059365  0.67826004  0.52563239     0.84000
N2303       N  0.67773917  0.70985122  0.51421962    -0.78500
C2304       C  0.51455442  0.67722305  0.72318491     0.81400
N2305       N  0.52990238  0.70883569  0.73464158    -0.76900
C2306       C  0.52388998  0.71633809  0.76662118     0.83900
N2307       N  0.50317184  0.69220091  0.78804194    -0.76800
C2308       C  0.98760546  0.66057813  0.77756663     0.84000
N2309       N  0.99339517  0.65252224  0.74503929    -0.78500
Zn2310     Zn  0.89948653  0.60052811  0.83515364     1.49700
Zn2311     Zn  0.96408126  0.60485395  0.87517279     1.49400
Zn2312     Zn  0.90032683  0.60145739  0.91328024     1.49100
Zn2313     Zn  0.89610566  0.53704821  0.87362543     1.49500
O2314       O  0.91540993  0.58562897  0.87426233    -1.82900
O2315       O  0.93631825  0.62593897  0.80231483    -0.73500
O2316       O  0.98434094  0.63415026  0.91982523    -0.73400
O2317       O  0.87292483  0.62411734  0.90287951    -0.72900
O2318       O  0.98070305  0.63138555  0.82979638    -0.73600
O2319       O  0.87595010  0.62709894  0.84551078    -0.73200
O2320       O  0.93912720  0.63255633  0.93934733    -0.73700
O2321       O  0.87018900  0.52074190  0.91920041    -0.73100
O2322       O  0.97835725  0.56962026  0.87499371    -0.73900
O2323       O  0.87580194  0.56505864  0.94689928    -0.73300
O2324       O  0.93086393  0.52240434  0.87370555    -0.73700
O2325       O  0.86650431  0.51649782  0.82938284    -0.73600
O2326       O  0.86877534  0.56165662  0.80864590    -0.73400
C2327       C  0.96699120  0.63659008  0.80365787     0.78400
C2328       C  0.96960395  0.64262829  0.94186374     0.78800
C2329       C  0.86643714  0.63332731  0.87417306     0.77800
C2330       C  0.86529244  0.53442938  0.94555654     0.78200
C2331       C  0.96232103  0.53813004  0.87436132     0.79300
C2332       C  0.85835098  0.53106647  0.80680975     0.78400
C2333       C  0.52620271  0.81573344  0.98079983     0.81400
N2334       N  0.50498977  0.81781676  0.95903778    -0.76900
C2335       C  0.98949317  0.83410253  0.96850609     0.83900
N2336       N  0.99598242  0.84934627  0.50021030    -0.76800
C2337       C  0.51669828  0.84626634  0.52274246     0.84000
N2338       N  0.53207506  0.82995455  0.51253737    -0.78500
Zn2339     Zn  0.70987072  0.86447247  0.85935464     1.49700
Zn2340     Zn  0.63638254  0.84600814  0.86085847     1.49400
Zn2341     Zn  0.65404929  0.79016247  0.86123196     1.49100
Zn2342     Zn  0.66665170  0.83370261  0.92173464     1.49500
O2343       O  0.66688156  0.83354804  0.87336670    -1.82900
O2344       O  0.70771956  0.89389239  0.82367206    -0.73500
O2345       O  0.60691841  0.81455577  0.82570427    -0.73400
O2346       O  0.68457370  0.79152305  0.82518166    -0.72900
O2347       O  0.66000741  0.89034456  0.83762143    -0.73600
O2348       O  0.72980538  0.84006803  0.83614332    -0.73200
O2349       O  0.60914284  0.76949351  0.83890974    -0.73700
O2350       O  0.68753570  0.80995277  0.93911396    -0.73100
O2351       O  0.60618618  0.83926688  0.90168049    -0.73900
O2352       O  0.66239055  0.76782263  0.90218865    -0.73300
O2353       O  0.62151916  0.81356086  0.93924737    -0.73700
O2354       O  0.69158782  0.87888729  0.93770173    -0.73600
O2355       O  0.73326552  0.89503449  0.90028493    -0.73400
C2356       C  0.68723701  0.90369304  0.82101611     0.78400
C2357       C  0.59642293  0.78404795  0.82272058     0.78800
C2358       C  0.71496918  0.81201965  0.82098777     0.77800
C2359       C  0.68033976  0.78155445  0.92900426     0.78200
C2360       C  0.60128123  0.82189986  0.92901893     0.79300
C2361       C  0.72021646  0.89964498  0.92732264     0.78400
Zn2362     Zn  0.93097715  0.86627918  0.83295164     1.49700
Zn2363     Zn  0.92920669  0.86664049  0.91521749     1.49400
Zn2364     Zn  0.86739168  0.80540616  0.87493658     1.49100
Zn2365     Zn  0.93168982  0.80606906  0.87425328     1.49500
O2366       O  0.91487145  0.83638272  0.87434890    -1.82900
O2367       O  0.95404213  0.91619389  0.84493400    -0.73500
O2368       O  0.89025399  0.85654657  0.94545142    -0.73400
O2369       O  0.85064069  0.81459505  0.83118549    -0.72900
O2370       O  0.95381314  0.91630401  0.90281796    -0.73600
O2371       O  0.89242639  0.85378594  0.80036160    -0.73200
O2372       O  0.84873833  0.81269931  0.91950324    -0.73700
O2373       O  0.89793068  0.75559911  0.87557825    -0.73100
O2374       O  0.95837281  0.85700033  0.94600037    -0.73900
O2375       O  0.85105897  0.75511321  0.87391508    -0.73300
O2376       O  0.96001710  0.81705718  0.91634608    -0.73700
O2377       O  0.95743181  0.81353452  0.83014048    -0.73600
O2378       O  0.96197810  0.85797616  0.80420443    -0.73400
C2379       C  0.96143081  0.93185438  0.87386873     0.78400
C2380       C  0.86051805  0.83298077  0.94491467     0.78800
C2381       C  0.86201702  0.83236906  0.80385704     0.77800
C2382       C  0.86654764  0.73945290  0.87467013     0.78200
C2383       C  0.96799143  0.83631505  0.94254279     0.79300
C2384       C  0.96742197  0.83417870  0.80512935     0.78400
C2385       C  0.78212665  0.80675409  0.76499738     0.81400
N2386       N  0.80607834  0.80998219  0.78639538    -0.77300
C2387       C  0.83803975  0.82758112  0.77683765     0.83900
N2388       N  0.84638794  0.84282250  0.74498749    -0.76800
C2389       C  0.82187938  0.83885405  0.72281697     0.84000
N2390       N  0.79007100  0.82138078  0.73355193    -0.78500
C2391       C  0.82457299  0.98598691  0.52556884     0.81400
N2392       N  0.84932824  0.50790812  0.50421278    -0.76900
C2393       C  0.84138374  0.51364560  0.97157930     0.83900
N2394       N  0.80996060  0.99722043  0.96047695    -0.76800
C2395       C  0.78582411  0.97574309  0.98133538     0.84000
N2396       N  0.79315339  0.96984910  0.51345224    -0.78500
C2397       C  0.68662167  0.97453870  0.76783948     0.81400
N2398       N  0.68347706  0.99470079  0.79029991    -0.76900
C2399       C  0.66591110  0.50906697  0.78159504     0.83900
N2400       N  0.65053250  0.50252979  0.75003332    -0.76800
C2401       C  0.65447885  0.98280832  0.72691342     0.84000
N2402       N  0.67205892  0.96850791  0.73626423    -0.78500
C2403       C  0.84783457  0.65155925  0.87412837     0.81400
N2404       N  0.81410206  0.63472422  0.87392521    -0.76900
C2405       C  0.79694994  0.65106343  0.87388164     0.83900
N2406       N  0.81419349  0.68478857  0.87413477    -0.76800
C2407       C  0.84792018  0.70221814  0.87439580     0.84000
N2408       N  0.86444518  0.68526678  0.87435055    -0.78500
C2409       C  0.75203436  0.79980764  0.78059678    -0.12100
C2410       C  0.73302875  0.80309756  0.79834416    -0.13600
C2411       C  0.73836043  0.92854219  0.94750511    -0.12100
C2412       C  0.75660258  0.95162641  0.96501743    -0.13600
C2413       C  0.69485016  0.93059758  0.79850276    -0.12100
C2414       C  0.69574003  0.95239416  0.78165088    -0.13600
C2415       C  0.57266929  0.81225491  0.94943743    -0.12100
C2416       C  0.54969297  0.80903031  0.96594781    -0.13600
C2417       C  0.56943015  0.76559978  0.80007733    -0.12100
C2418       C  0.54720056  0.74644866  0.78215069    -0.13600
C2419       C  0.69771537  0.74660528  0.96619403    -0.12100
C2420       C  0.69227923  0.76447641  0.94902065    -0.13600
C2421       C  0.76336020  0.68835339  0.69924179    -0.12100
C2422       C  0.74419232  0.69262232  0.71534796    -0.13600
C2423       C  0.79992932  0.54493314  0.71647924    -0.12100
C2424       C  0.80529194  0.56807365  0.69900942    -0.13600
C2425       C  0.93102491  0.69501934  0.55151813    -0.12100
C2426       C  0.95294493  0.69857989  0.53301228    -0.13600
C2427       C  0.92904917  0.73464757  0.70414359    -0.12100
C2428       C  0.95196966  0.75462999  0.72083144    -0.13600
C2429       C  0.76665505  0.57043252  0.54721230    -0.12100
C2430       C  0.74593869  0.54911100  0.52943624    -0.13600
C2431       C  0.80754551  0.75509268  0.53519305    -0.12100
C2432       C  0.80946413  0.73509168  0.55249331    -0.13600
loop_ 
_geom_bond_atom_site_label_1 
_geom_bond_atom_site_label_2 
_geom_bond_distance 
_geom_bond_site_symmetry_2 
_ccdc_geom_bond_type 
C1           C37   1.497       .  S
C1          N610   1.368       .  A
C1         N1222   1.367   1_455  A
N2            C3   1.367       .  A
N2          C609   1.368   1_545  A
C3          C132   1.505       .  S
C3         N1220   1.370   1_455  A
N4         C1219   1.370       .  A
N4          C613   1.370   1_545  A
C5           C95   1.504       .  S
C5            N6   1.367       .  A
C5          N612   1.370       .  A
N6         C1217   1.367       .  A
C7           C41   1.520       .  S
C7            N8   1.373       .  A
C7           N12   1.374       .  A
N8            C9   1.372       .  A
C9          C129   1.505       .  S
C9           N10   1.366       .  A
N10          C11   1.366       .  A
C11          C99   1.506       .  S
C11          N12   1.373       .  A
C13          N18   1.345       .  A
C13         N318   1.350   1_554  A
C13         C303   1.414       .  S
N14          C15   1.356       .  A
N14         C317   1.350       .  A
C15         C252   1.465       .  S
C15          N16   1.367       .  A
N16         C321   1.365       .  A
C17          C97   1.454       .  S
C17          N18   1.347       .  A
C17         N320   1.365   1_554  A
Zn19         O23   1.958       .  S
Zn19         O24   2.013       .  S
Zn19         O28   1.997       .  S
Zn19         O35   2.101       .  S
Zn20         O23   1.992       .  S
Zn20         O25   2.078       .  S
Zn20         O27   2.018       .  S
Zn20         O31   2.024       .  S
Zn21         O23   1.993       .  S
Zn21         O26   2.023       .  S
Zn21         O29   2.078       .  S
Zn21         O32   2.012       .  S
Zn22         O23   1.960       .  S
Zn22         O30   2.005       .  S
Zn22         O33   1.989       .  S
Zn22         O34   2.097       .  S
O24          C36   1.276       .  A
O25          C37   1.277       .  A
O26          C38   1.274       .  A
O27          C36   1.273       .  A
O28          C38   1.277       .  A
O29          C37   1.278       .  A
O30          C39   1.275       .  A
O31          C40   1.274       .  A
O32          C39   1.273       .  A
O33          C40   1.276       .  A
O34          C41   1.277       .  A
O35          C41   1.277       .  A
C36         C209   1.461       .  S
C38          C50   1.462       .  S
C39         C273   1.458       .  S
C40          C44   1.460       .  S
C42         C167   1.460       .  S
C42          N47   1.357       .  A
C42         N651   1.364       .  A
N43         C650   1.364       .  A
N43         C348   1.363       .  A
C44         N347   1.363   1_554  A
C44         N653   1.351       .  A
N45          C46   1.345       .  A
N45         C652   1.351   1_545  A
C46         N351   1.348   1_554  A
C46         C302   1.417       .  S
N47         C350   1.348       .  A
C48         C256   1.463       .  S
C48          N53   1.356       .  A
C48        N1265   1.365       .  A
N49          C50   1.365       .  A
N49        C1264   1.365   1_455  A
C50        N1267   1.351   1_455  A
N51          C52   1.344       .  A
N51        C1266   1.351       .  A
C52          N53   1.349       .  A
C52         C300   1.416       .  S
Zn54         O58   1.870       .  S
Zn54         O59   1.970       .  S
Zn54         O63   2.026       .  S
Zn54         O70   2.014       .  S
Zn55         O58   1.867       .  S
Zn55         O60   2.032       .  S
Zn55         O62   2.010       .  S
Zn55         O66   1.959       .  S
Zn56         O58   1.852       .  S
Zn56         O61   1.947       .  S
Zn56         O64   1.956       .  S
Zn56         O67   1.938       .  S
Zn57         O58   1.870       .  S
Zn57         O65   2.039       .  S
Zn57         O68   2.021       .  S
Zn57         O69   1.981       .  S
O59          C71   1.268       .  A
O60          C72   1.278       .  A
O61          C73   1.265       .  A
O62          C71   1.277       .  A
O63          C73   1.278       .  A
O64          C72   1.265       .  A
O65          C74   1.280       .  A
O66          C75   1.266       .  A
O67          C74   1.264       .  A
O68          C75   1.280       .  A
O69          C76   1.268       .  A
O70          C76   1.277       .  A
C71         C304   1.417       .  S
C72         C299   1.421       .  S
C73         C293   1.416       .  S
C74         C296   1.416       .  S
C75         C297   1.416       .  S
C76         C301   1.421       .  S
Zn77         O81   1.952       .  S
Zn77         O82   1.970       .  S
Zn77         O86   1.945       .  S
Zn77         O93   2.081       .  S
Zn78         O81   1.992       .  S
Zn78         O83   2.083       .  S
Zn78         O85   2.053       .  S
Zn78         O89   2.102       .  S
Zn79         O81   1.991       .  S
Zn79         O84   2.083       .  S
Zn79         O87   2.075       .  S
Zn79         O90   2.041       .  S
Zn80         O81   1.956       .  S
Zn80         O88   1.991       .  S
Zn80         O91   1.948       .  S
Zn80         O92   2.093       .  S
O82          C94   1.266       .  A
O83          C95   1.279       .  A
O84          C96   1.278       .  A
O85          C94   1.282       .  A
O86          C96   1.268       .  A
O87          C95   1.280       .  A
O88          C97   1.270       .  A
O89          C98   1.281       .  A
O90          C97   1.280       .  A
O91          C98   1.268       .  A
O92          C99   1.277       .  A
O93          C99   1.275       .  A
C94         C104   1.450       .  S
C96         C261   1.468       .  S
C98         C263   1.474       .  S
C100        N101   1.347       .  A
C100        N105   1.339       .  A
C100        C295   1.411       .  S
N101        C102   1.358       .  A
C102        C204   1.471       .  S
C102        N711   1.369   1_545  A
N103        C104   1.370       .  A
N103        C710   1.369       .  A
C104        N713   1.345       .  A
N105        C712   1.345   1_545  A
C106        N107   1.349       .  A
C106        N111   1.344       .  A
C106        C294   1.412       .  S
N107        C108   1.355       .  A
C108        C164   1.466       .  S
C108        N109   1.367       .  A
N109        C110   1.366       .  A
C110        C133   1.453       .  S
C110        N111   1.347       .  A
Zn112       O116   1.954       .  S
Zn112       O117   2.082       .  S
Zn112       O121   1.973       .  S
Zn112       O128   1.948       .  S
Zn113       O116   1.957       .  S
Zn113       O118   1.949       .  S
Zn113       O120   2.091       .  S
Zn113       O124   1.990       .  S
Zn114       O116   1.991       .  S
Zn114       O119   2.054       .  S
Zn114       O122   2.096       .  S
Zn114       O125   2.082       .  S
Zn115       O116   1.990       .  S
Zn115       O123   2.076       .  S
Zn115       O126   2.040       .  S
Zn115       O127   2.085       .  S
O117        C129   1.275       .  A
O118        C130   1.268       .  A
O119        C131   1.282       .  A
O120        C129   1.276       .  A
O121        C131   1.267       .  A
O122        C130   1.280       .  A
O123        C132   1.279       .  A
O124        C133   1.270       .  A
O125        C132   1.279       .  A
O126        C133   1.279       .  A
O127        C134   1.279       .  A
O128        C134   1.269       .  A
C130        C176   1.471       .  S
C131        C137   1.451       .  S
C134        C174   1.469       .  S
C135        N136   1.339       .  A
C135        N444   1.345   1_554  A
C135        C298   1.411       .  S
N136       C1353   1.345       .  A
C137       N1352   1.345   1_455  A
C137        N442   1.371   1_554  A
N138        C441   1.371       .  A
N138       C1355   1.370   1_455  A
C139        C200   1.472       .  S
C139        N140   1.359       .  A
C139       N1354   1.370       .  A
N140        C439   1.345       .  A
C141        C203   1.506       .  S
C141       N1358   1.369       .  A
C141        N754   1.370   1_545  A
N142        C143   1.367       .  A
N142       C1357   1.369   1_455  A
C143        C166   1.494       .  S
C143        N752   1.365   1_545  A
N144        C751   1.365       .  A
N144       C1361   1.365   1_455  A
C145        C251   1.497       .  S
C145        N146   1.369       .  A
C145       N1360   1.365       .  A
N146        C749   1.370       .  A
Zn147       O151   1.989       .  S
Zn147       O152   2.022       .  S
Zn147       O156   2.071       .  S
Zn147       O163   2.031       .  S
Zn148       O151   1.952       .  S
Zn148       O153   1.992       .  S
Zn148       O155   2.026       .  S
Zn148       O159   2.089       .  S
Zn149       O151   2.000       .  S
Zn149       O154   2.078       .  S
Zn149       O157   2.032       .  S
Zn149       O160   2.018       .  S
Zn150       O151   1.956       .  S
Zn150       O158   2.000       .  S
Zn150       O161   2.085       .  S
Zn150       O162   1.984       .  S
O152        C164   1.273       .  A
O153        C165   1.277       .  A
O154        C166   1.278       .  A
O155        C164   1.277       .  A
O156        C166   1.277       .  A
O157        C165   1.274       .  A
O158        C167   1.274       .  A
O159        C168   1.276       .  A
O160        C167   1.273       .  A
O161        C168   1.275       .  A
O162        C169   1.275       .  A
O163        C169   1.275       .  A
C165        C172   1.464       .  S
C168        C277   1.513       .  S
C169        C271   1.461       .  S
C170        N171   1.340       .  A
C170        N479   1.345       .  A
C170        C291   1.415       .  S
N171        C172   1.350       .  A
C172        N477   1.370       .  A
N173        C174   1.369       .  A
N173        C476   1.370   1_554  A
C174        N175   1.357       .  A
N175        C474   1.345   1_554  A
C176        N177   1.358       .  A
C176       N1397   1.369   1_455  A
N177        C178   1.345       .  A
C178        N179   1.340       .  A
C178        C290   1.412       .  S
N179       C1396   1.346   1_455  A
C180        C199   1.452       .  S
C180        N181   1.371       .  A
C180       N1395   1.346       .  A
N181       C1392   1.369       .  A
Zn182       O186   1.960       .  S
Zn182       O187   1.981       .  S
Zn182       O191   2.092       .  S
Zn182       O198   1.947       .  S
Zn183       O186   1.994       .  S
Zn183       O188   2.099       .  S
Zn183       O190   2.052       .  S
Zn183       O194   2.087       .  S
Zn184       O186   1.959       .  S
Zn184       O189   2.092       .  S
Zn184       O192   1.941       .  S
Zn184       O195   1.983       .  S
Zn185       O186   1.990       .  S
Zn185       O193   2.046       .  S
Zn185       O196   2.077       .  S
Zn185       O197   2.095       .  S
O187        C199   1.269       .  A
O188        C200   1.280       .  A
O189        C201   1.276       .  A
O190        C199   1.282       .  A
O191        C201   1.276       .  A
O192        C200   1.268       .  A
O193        C202   1.281       .  A
O194        C203   1.280       .  A
O195        C202   1.268       .  A
O196        C203   1.278       .  A
O197        C204   1.280       .  A
O198        C204   1.268       .  A
C201        C275   1.509       .  S
C202        C265   1.451       .  S
C205        N206   1.344       .  A
C205        N514   1.348       .  A
C205        C288   1.417       .  S
N206       C1423   1.352   1_455  A
C207        C255   1.462       .  S
C207       N1422   1.352       .  A
C207        N512   1.365       .  A
N208        C511   1.365   1_554  A
N208       C1425   1.366       .  A
C209        N210   1.356       .  A
C209       N1424   1.366   1_455  A
N210        C509   1.348   1_554  A
Zn211       O215   1.877       .  S
Zn211       O216   1.988       .  S
Zn211       O220   2.025       .  S
Zn211       O227   2.034       .  S
Zn212       O215   1.872       .  S
Zn212       O217   1.962       .  S
Zn212       O219   2.011       .  S
Zn212       O223   2.029       .  S
Zn213       O215   1.874       .  S
Zn213       O218   1.973       .  S
Zn213       O221   2.017       .  S
Zn213       O224   2.038       .  S
Zn214       O215   1.854       .  S
Zn214       O222   1.947       .  S
Zn214       O225   1.957       .  S
Zn214       O226   1.937       .  S
O216        C228   1.269       .  A
O217        C229   1.267       .  A
O218        C230   1.268       .  A
O219        C228   1.277       .  A
O220        C230   1.279       .  A
O221        C229   1.279       .  A
O222        C231   1.264       .  A
O223        C232   1.277       .  A
O224        C231   1.279       .  A
O225        C232   1.265       .  A
O226        C233   1.264       .  A
O227        C233   1.279       .  A
C228        C285   1.422       .  S
C229        C289   1.416       .  S
C230        C282   1.421       .  S
C231        C292   1.420       .  S
C232        C287   1.420       .  S
C233        C283   1.415       .  S
Zn234       O238   2.000       .  S
Zn234       O239   2.082       .  S
Zn234       O243   2.031       .  S
Zn234       O250   2.022       .  S
Zn235       O238   1.991       .  S
Zn235       O240   2.014       .  S
Zn235       O242   2.074       .  S
Zn235       O246   2.032       .  S
Zn236       O238   1.956       .  S
Zn236       O241   1.993       .  S
Zn236       O244   2.029       .  S
Zn236       O247   2.090       .  S
Zn237       O238   1.956       .  S
Zn237       O245   2.087       .  S
Zn237       O248   1.988       .  S
Zn237       O249   2.006       .  S
O239        C251   1.279       .  A
O240        C252   1.272       .  A
O241        C253   1.278       .  A
O242        C251   1.277       .  A
O243        C253   1.274       .  A
O244        C252   1.277       .  A
O245        C254   1.275       .  A
O246        C255   1.275       .  A
O247        C254   1.276       .  A
O248        C255   1.275       .  A
O249        C256   1.275       .  A
O250        C256   1.273       .  A
C253        C259   1.464       .  S
C254        C279   1.513       .  S
C257        N258   1.340       .  A
C257        N262   1.345       .  A
C257        C281   1.417       .  S
N258        C259   1.351       .  A
C259        N260   1.370       .  A
N260        C261   1.369       .  A
C261        N262   1.358       .  A
C263        N268   1.358       .  A
C263        N872   1.370       .  A
N264        C871   1.370   1_545  A
N264        C569   1.372   1_554  A
C265        N568   1.372       .  A
C265        N874   1.345   1_545  A
N266        C267   1.338       .  A
N266        C873   1.345       .  A
C267        N572   1.345       .  A
C267        C284   1.411       .  S
N268        C571   1.345   1_554  A
C269        N270   1.346       .  A
C269        N274   1.348       .  A
C269        C286   1.419       .  S
N270        C879   1.352       .  A
C271        N272   1.363       .  A
C271        N878   1.352   1_545  A
N272        C881   1.364   1_545  A
C273        N274   1.356       .  A
C273        N880   1.364       .  A
C275        N276   1.370       .  A
C275        N280   1.370       .  A
N276        C277   1.372       .  A
C277        N278   1.370       .  A
N278        C279   1.370       .  A
C279        N280   1.371       .  A
C281        C282   1.197       .  T
C283        C284   1.193       .  T
C285        C286   1.197       .  T
C287        C288   1.196       .  T
C289        C290   1.193       .  T
C291        C292   1.196       .  T
C293        C294   1.193       .  T
C295        C296   1.193       .  T
C297        C298   1.193       .  T
C299        C300   1.196       .  T
C301        C302   1.196       .  T
C303        C304   1.194       .  T
C305        C341   1.497       .  S
C305        N914   1.368       .  A
C305       N1526   1.367   1_455  A
N306        C913   1.368   1_545  A
N306        C307   1.367       .  A
C307        C436   1.505       .  S
C307       N1524   1.370   1_455  A
N308       C1523   1.370       .  A
N308        C917   1.370   1_545  A
C309        C399   1.504       .  S
C309        N916   1.370       .  A
C309        N310   1.367       .  A
N310       C1521   1.367       .  A
C311        C345   1.520       .  S
C311        N312   1.373       .  A
C311        N316   1.374       .  A
N312        C313   1.372       .  A
C313        C433   1.505       .  S
C313        N314   1.366       .  A
N314        C315   1.366       .  A
C315        C403   1.506       .  S
C315        N316   1.373       .  A
C317        N322   1.345       .  A
C317        C607   1.414       .  S
N318        C319   1.356       .  A
C319        C556   1.465       .  S
C319        N320   1.367       .  A
C321        C401   1.454       .  S
C321        N322   1.347       .  A
Zn323       O327   1.958       .  S
Zn323       O328   2.013       .  S
Zn323       O332   1.997       .  S
Zn323       O339   2.101       .  S
Zn324       O327   1.992       .  S
Zn324       O329   2.078       .  S
Zn324       O331   2.018       .  S
Zn324       O335   2.024       .  S
Zn325       O327   1.993       .  S
Zn325       O330   2.023       .  S
Zn325       O333   2.078       .  S
Zn325       O336   2.012       .  S
Zn326       O327   1.960       .  S
Zn326       O334   2.005       .  S
Zn326       O337   1.989       .  S
Zn326       O338   2.097       .  S
O328        C340   1.276       .  A
O329        C341   1.277       .  A
O330        C342   1.274       .  A
O331        C340   1.273       .  A
O332        C342   1.277       .  A
O333        C341   1.278       .  A
O334        C343   1.275       .  A
O335        C344   1.274       .  A
O336        C343   1.273       .  A
O337        C344   1.276       .  A
O338        C345   1.277       .  A
O339        C345   1.277       .  A
C340        C513   1.461       .  S
C342        C354   1.462       .  S
C343        C577   1.458       .  S
C344        C348   1.460       .  S
C346        C471   1.460       .  S
C346        N955   1.364       .  A
C346        N351   1.357       .  A
N347        C954   1.364       .  A
C348        N957   1.351       .  A
N349        C956   1.351   1_545  A
N349        C350   1.345       .  A
C350        C606   1.417       .  S
C352        C560   1.463       .  S
C352       N1569   1.365       .  A
C352        N357   1.356       .  A
N353       C1568   1.365   1_455  A
N353        C354   1.365       .  A
C354       N1571   1.351   1_455  A
N355       C1570   1.351       .  A
N355        C356   1.344       .  A
C356        N357   1.349       .  A
C356        C604   1.416       .  S
Zn358       O362   1.870       .  S
Zn358       O363   1.970       .  S
Zn358       O367   2.026       .  S
Zn358       O374   2.014       .  S
Zn359       O362   1.867       .  S
Zn359       O364   2.032       .  S
Zn359       O366   2.010       .  S
Zn359       O370   1.959       .  S
Zn360       O362   1.852       .  S
Zn360       O365   1.947       .  S
Zn360       O368   1.956       .  S
Zn360       O371   1.938       .  S
Zn361       O362   1.870       .  S
Zn361       O369   2.039       .  S
Zn361       O372   2.021       .  S
Zn361       O373   1.981       .  S
O363        C375   1.268       .  A
O364        C376   1.278       .  A
O365        C377   1.265       .  A
O366        C375   1.277       .  A
O367        C377   1.278       .  A
O368        C376   1.265       .  A
O369        C378   1.280       .  A
O370        C379   1.266       .  A
O371        C378   1.264       .  A
O372        C379   1.280       .  A
O373        C380   1.268       .  A
O374        C380   1.277       .  A
C375        C608   1.417       .  S
C376        C603   1.421       .  S
C377        C597   1.416       .  S
C378        C600   1.416       .  S
C379        C601   1.416       .  S
C380        C605   1.421       .  S
Zn381       O385   1.952       .  S
Zn381       O386   1.970       .  S
Zn381       O390   1.945       .  S
Zn381       O397   2.081       .  S
Zn382       O385   1.992       .  S
Zn382       O387   2.083       .  S
Zn382       O389   2.053       .  S
Zn382       O393   2.102       .  S
Zn383       O385   1.991       .  S
Zn383       O388   2.083       .  S
Zn383       O391   2.075       .  S
Zn383       O394   2.041       .  S
Zn384       O385   1.956       .  S
Zn384       O392   1.991       .  S
Zn384       O395   1.948       .  S
Zn384       O396   2.093       .  S
O386        C398   1.266       .  A
O387        C399   1.279       .  A
O388        C400   1.278       .  A
O389        C398   1.282       .  A
O390        C400   1.268       .  A
O391        C399   1.280       .  A
O392        C401   1.270       .  A
O393        C402   1.281       .  A
O394        C401   1.280       .  A
O395        C402   1.268       .  A
O396        C403   1.277       .  A
O397        C403   1.275       .  A
C398        C408   1.450       .  S
C400        C565   1.468       .  S
C402        C567   1.474       .  S
C404        N405   1.347       .  A
C404        N409   1.339       .  A
C404        C599   1.411       .  S
N405        C406   1.358       .  A
C406        C508   1.471       .  S
C406       N1015   1.369   1_545  A
N407       C1014   1.369       .  A
N407        C408   1.370       .  A
C408       N1017   1.345       .  A
N409       C1016   1.345   1_545  A
C410        N411   1.349       .  A
C410        N415   1.344       .  A
C410        C598   1.412       .  S
N411        C412   1.355       .  A
C412        C468   1.466       .  S
C412        N413   1.367       .  A
N413        C414   1.366       .  A
C414        C437   1.453       .  S
C414        N415   1.347       .  A
Zn416       O420   1.954       .  S
Zn416       O421   2.082       .  S
Zn416       O425   1.973       .  S
Zn416       O432   1.948       .  S
Zn417       O420   1.957       .  S
Zn417       O422   1.949       .  S
Zn417       O424   2.091       .  S
Zn417       O428   1.990       .  S
Zn418       O420   1.991       .  S
Zn418       O423   2.054       .  S
Zn418       O426   2.096       .  S
Zn418       O429   2.082       .  S
Zn419       O420   1.990       .  S
Zn419       O427   2.076       .  S
Zn419       O430   2.040       .  S
Zn419       O431   2.085       .  S
O421        C433   1.275       .  A
O422        C434   1.268       .  A
O423        C435   1.282       .  A
O424        C433   1.276       .  A
O425        C435   1.267       .  A
O426        C434   1.280       .  A
O427        C436   1.279       .  A
O428        C437   1.270       .  A
O429        C436   1.278       .  A
O430        C437   1.279       .  A
O431        C438   1.279       .  A
O432        C438   1.269       .  A
C434        C480   1.471       .  S
C435        C441   1.451       .  S
C438        C478   1.469       .  S
C439        N440   1.339       .  A
C439        C602   1.411       .  S
N440       C1657   1.345       .  A
C441       N1656   1.345   1_455  A
N442       C1659   1.370   1_455  A
C443        C504   1.472       .  S
C443       N1658   1.370       .  A
C443        N444   1.359       .  A
C445        C507   1.506       .  S
C445       N1662   1.369       .  A
C445       N1058   1.370   1_545  A
N446       C1661   1.369   1_455  A
N446        C447   1.367       .  A
C447        C470   1.494       .  S
C447       N1056   1.365   1_545  A
N448       C1055   1.365       .  A
N448       C1665   1.365   1_455  A
C449        C555   1.497       .  S
C449       N1664   1.365       .  A
C449        N450   1.369       .  A
N450       C1053   1.370       .  A
Zn451       O455   1.989       .  S
Zn451       O456   2.022       .  S
Zn451       O460   2.071       .  S
Zn451       O467   2.031       .  S
Zn452       O455   1.952       .  S
Zn452       O457   1.992       .  S
Zn452       O459   2.026       .  S
Zn452       O463   2.089       .  S
Zn453       O455   2.000       .  S
Zn453       O458   2.078       .  S
Zn453       O461   2.032       .  S
Zn453       O464   2.018       .  S
Zn454       O455   1.956       .  S
Zn454       O462   2.000       .  S
Zn454       O465   2.085       .  S
Zn454       O466   1.984       .  S
O456        C468   1.273       .  A
O457        C469   1.277       .  A
O458        C470   1.278       .  A
O459        C468   1.277       .  A
O460        C470   1.277       .  A
O461        C469   1.274       .  A
O462        C471   1.274       .  A
O463        C472   1.276       .  A
O464        C471   1.273       .  A
O465        C472   1.275       .  A
O466        C473   1.275       .  A
O467        C473   1.275       .  A
C469        C476   1.464       .  S
C472        C581   1.513       .  S
C473        C575   1.461       .  S
C474        N475   1.340       .  A
C474        C595   1.415       .  S
N475        C476   1.350       .  A
N477        C478   1.369       .  A
C478        N479   1.357       .  A
C480        N481   1.358       .  A
C480       N1701   1.369   1_455  A
N481        C482   1.345       .  A
C482        N483   1.340       .  A
C482        C594   1.412       .  S
N483       C1700   1.346   1_455  A
C484        C503   1.452       .  S
C484       N1699   1.346       .  A
C484        N485   1.371       .  A
N485       C1696   1.369       .  A
Zn486       O490   1.960       .  S
Zn486       O491   1.981       .  S
Zn486       O495   2.092       .  S
Zn486       O502   1.947       .  S
Zn487       O490   1.994       .  S
Zn487       O492   2.099       .  S
Zn487       O494   2.052       .  S
Zn487       O498   2.087       .  S
Zn488       O490   1.959       .  S
Zn488       O493   2.092       .  S
Zn488       O496   1.941       .  S
Zn488       O499   1.983       .  S
Zn489       O490   1.990       .  S
Zn489       O497   2.046       .  S
Zn489       O500   2.077       .  S
Zn489       O501   2.095       .  S
O491        C503   1.269       .  A
O492        C504   1.280       .  A
O493        C505   1.276       .  A
O494        C503   1.282       .  A
O495        C505   1.276       .  A
O496        C504   1.268       .  A
O497        C506   1.281       .  A
O498        C507   1.280       .  A
O499        C506   1.268       .  A
O500        C507   1.278       .  A
O501        C508   1.280       .  A
O502        C508   1.268       .  A
C505        C579   1.509       .  S
C506        C569   1.451       .  S
C509        N510   1.344       .  A
C509        C592   1.417       .  S
N510       C1727   1.352   1_455  A
C511        C559   1.462       .  S
C511       N1726   1.352       .  A
N512       C1729   1.366       .  A
C513       N1728   1.366   1_455  A
C513        N514   1.356       .  A
Zn515       O519   1.877       .  S
Zn515       O520   1.988       .  S
Zn515       O524   2.025       .  S
Zn515       O531   2.034       .  S
Zn516       O519   1.872       .  S
Zn516       O521   1.962       .  S
Zn516       O523   2.011       .  S
Zn516       O527   2.029       .  S
Zn517       O519   1.874       .  S
Zn517       O522   1.973       .  S
Zn517       O525   2.017       .  S
Zn517       O528   2.038       .  S
Zn518       O519   1.854       .  S
Zn518       O526   1.947       .  S
Zn518       O529   1.957       .  S
Zn518       O530   1.937       .  S
O520        C532   1.269       .  A
O521        C533   1.267       .  A
O522        C534   1.268       .  A
O523        C532   1.277       .  A
O524        C534   1.279       .  A
O525        C533   1.279       .  A
O526        C535   1.264       .  A
O527        C536   1.277       .  A
O528        C535   1.279       .  A
O529        C536   1.265       .  A
O530        C537   1.264       .  A
O531        C537   1.279       .  A
C532        C589   1.422       .  S
C533        C593   1.416       .  S
C534        C586   1.421       .  S
C535        C596   1.420       .  S
C536        C591   1.420       .  S
C537        C587   1.415       .  S
Zn538       O542   2.000       .  S
Zn538       O543   2.082       .  S
Zn538       O547   2.031       .  S
Zn538       O554   2.022       .  S
Zn539       O542   1.991       .  S
Zn539       O544   2.014       .  S
Zn539       O546   2.074       .  S
Zn539       O550   2.032       .  S
Zn540       O542   1.956       .  S
Zn540       O545   1.993       .  S
Zn540       O548   2.029       .  S
Zn540       O551   2.090       .  S
Zn541       O542   1.956       .  S
Zn541       O549   2.087       .  S
Zn541       O552   1.988       .  S
Zn541       O553   2.006       .  S
O543        C555   1.279       .  A
O544        C556   1.272       .  A
O545        C557   1.278       .  A
O546        C555   1.277       .  A
O547        C557   1.274       .  A
O548        C556   1.277       .  A
O549        C558   1.275       .  A
O550        C559   1.275       .  A
O551        C558   1.276       .  A
O552        C559   1.275       .  A
O553        C560   1.275       .  A
O554        C560   1.273       .  A
C557        C563   1.464       .  S
C558        C583   1.513       .  S
C561        N562   1.340       .  A
C561        N566   1.345       .  A
C561        C585   1.417       .  S
N562        C563   1.351       .  A
C563        N564   1.370       .  A
N564        C565   1.369       .  A
C565        N566   1.358       .  A
C567       N1176   1.370       .  A
C567        N572   1.358       .  A
N568       C1175   1.370   1_545  A
C569       N1178   1.345   1_545  A
N570       C1177   1.345       .  A
N570        C571   1.338       .  A
C571        C588   1.411       .  S
C573        N574   1.346       .  A
C573        N578   1.348       .  A
C573        C590   1.419       .  S
N574       C1183   1.352       .  A
C575       N1182   1.352   1_545  A
C575        N576   1.363       .  A
N576       C1185   1.364   1_545  A
C577       N1184   1.364       .  A
C577        N578   1.356       .  A
C579        N580   1.370       .  A
C579        N584   1.370       .  A
N580        C581   1.372       .  A
C581        N582   1.370       .  A
N582        C583   1.370       .  A
C583        N584   1.371       .  A
C585        C586   1.197       .  T
C587        C588   1.193       .  T
C589        C590   1.197       .  T
C591        C592   1.196       .  T
C593        C594   1.193       .  T
C595        C596   1.196       .  T
C597        C598   1.193       .  T
C599        C600   1.193       .  T
C601        C602   1.193       .  T
C603        C604   1.196       .  T
C605        C606   1.196       .  T
C607        C608   1.194       .  T
C609        C645   1.497       .  S
C609       N1830   1.367   1_455  A
N610        C611   1.367       .  A
C611        C740   1.505       .  S
C611       N1828   1.370   1_455  A
N612       C1827   1.370       .  A
C613        C703   1.504       .  S
C613        N614   1.367       .  A
N614       C1825   1.367       .  A
C615        C649   1.520       .  S
C615        N616   1.373       .  A
C615        N620   1.374       .  A
N616        C617   1.372       .  A
C617        C737   1.505       .  S
C617        N618   1.366       .  A
N618        C619   1.366       .  A
C619        C707   1.506       .  S
C619        N620   1.373       .  A
C621        N926   1.350   1_554  A
C621        N626   1.345       .  A
C621        C911   1.414       .  S
N622        C925   1.349       .  A
N622        C623   1.356       .  A
C623        C860   1.465       .  S
C623        N624   1.367       .  A
N624        C929   1.365       .  A
C625        C705   1.454       .  S
C625        N928   1.365   1_554  A
C625        N626   1.347       .  A
Zn627       O631   1.958       .  S
Zn627       O632   2.013       .  S
Zn627       O636   1.997       .  S
Zn627       O643   2.101       .  S
Zn628       O631   1.992       .  S
Zn628       O633   2.078       .  S
Zn628       O635   2.018       .  S
Zn628       O639   2.024       .  S
Zn629       O631   1.993       .  S
Zn629       O634   2.023       .  S
Zn629       O637   2.078       .  S
Zn629       O640   2.012       .  S
Zn630       O631   1.960       .  S
Zn630       O638   2.005       .  S
Zn630       O641   1.989       .  S
Zn630       O642   2.097       .  S
O632        C644   1.276       .  A
O633        C645   1.278       .  A
O634        C646   1.274       .  A
O635        C644   1.273       .  A
O636        C646   1.277       .  A
O637        C645   1.278       .  A
O638        C647   1.275       .  A
O639        C648   1.274       .  A
O640        C647   1.273       .  A
O641        C648   1.276       .  A
O642        C649   1.277       .  A
O643        C649   1.277       .  A
C644        C817   1.461       .  S
C646        C658   1.462       .  S
C647        C881   1.458       .  S
C648        C652   1.460       .  S
C650        C775   1.460       .  S
C650        N655   1.357       .  A
N651        C956   1.363   1_545  A
C652        N955   1.363   1_564  A
N653        C654   1.345       .  A
C654        N959   1.348   1_554  A
C654        C910   1.417       .  S
N655        C958   1.348       .  A
C656        C864   1.463       .  S
C656       N1873   1.365       .  A
C656        N661   1.356       .  A
N657       C1872   1.365   1_455  A
N657        C658   1.365       .  A
C658       N1875   1.351   1_455  A
N659       C1874   1.351       .  A
N659        C660   1.344       .  A
C660        N661   1.349       .  A
C660        C908   1.416       .  S
Zn662       O666   1.870       .  S
Zn662       O667   1.970       .  S
Zn662       O671   2.026       .  S
Zn662       O678   2.014       .  S
Zn663       O666   1.867       .  S
Zn663       O668   2.032       .  S
Zn663       O670   2.010       .  S
Zn663       O674   1.959       .  S
Zn664       O666   1.852       .  S
Zn664       O669   1.947       .  S
Zn664       O672   1.956       .  S
Zn664       O675   1.938       .  S
Zn665       O666   1.870       .  S
Zn665       O673   2.039       .  S
Zn665       O676   2.021       .  S
Zn665       O677   1.981       .  S
O667        C679   1.268       .  A
O668        C680   1.278       .  A
O669        C681   1.265       .  A
O670        C679   1.277       .  A
O671        C681   1.278       .  A
O672        C680   1.265       .  A
O673        C682   1.280       .  A
O674        C683   1.266       .  A
O675        C682   1.264       .  A
O676        C683   1.280       .  A
O677        C684   1.268       .  A
O678        C684   1.277       .  A
C679        C912   1.417       .  S
C680        C907   1.421       .  S
C681        C901   1.416       .  S
C682        C904   1.416       .  S
C683        C905   1.416       .  S
C684        C909   1.421       .  S
Zn685       O689   1.952       .  S
Zn685       O690   1.970       .  S
Zn685       O694   1.945       .  S
Zn685       O701   2.081       .  S
Zn686       O689   1.992       .  S
Zn686       O691   2.083       .  S
Zn686       O693   2.053       .  S
Zn686       O697   2.102       .  S
Zn687       O689   1.991       .  S
Zn687       O692   2.083       .  S
Zn687       O695   2.075       .  S
Zn687       O698   2.041       .  S
Zn688       O689   1.956       .  S
Zn688       O696   1.991       .  S
Zn688       O699   1.948       .  S
Zn688       O700   2.093       .  S
O690        C702   1.266       .  A
O691        C703   1.279       .  A
O692        C704   1.278       .  A
O693        C702   1.282       .  A
O694        C704   1.268       .  A
O695        C703   1.280       .  A
O696        C705   1.270       .  A
O697        C706   1.281       .  A
O698        C705   1.280       .  A
O699        C706   1.268       .  A
O700        C707   1.277       .  A
O701        C707   1.275       .  A
C702        C712   1.450       .  S
C704        C869   1.468       .  S
C706        C871   1.474       .  S
C708        N709   1.347       .  A
C708        N713   1.339       .  A
C708        C903   1.411       .  S
N709        C710   1.358       .  A
C710        C812   1.471       .  S
N711        C712   1.370       .  A
C714        N715   1.349       .  A
C714        N719   1.344       .  A
C714        C902   1.412       .  S
N715        C716   1.355       .  A
C716        C772   1.466       .  S
C716        N717   1.367       .  A
N717        C718   1.366       .  A
C718        C741   1.453       .  S
C718        N719   1.347       .  A
Zn720       O724   1.954       .  S
Zn720       O725   2.082       .  S
Zn720       O729   1.973       .  S
Zn720       O736   1.948       .  S
Zn721       O724   1.957       .  S
Zn721       O726   1.949       .  S
Zn721       O728   2.091       .  S
Zn721       O732   1.990       .  S
Zn722       O724   1.991       .  S
Zn722       O727   2.054       .  S
Zn722       O730   2.096       .  S
Zn722       O733   2.082       .  S
Zn723       O724   1.990       .  S
Zn723       O731   2.076       .  S
Zn723       O734   2.040       .  S
Zn723       O735   2.085       .  S
O725        C737   1.275       .  A
O726        C738   1.268       .  A
O727        C739   1.282       .  A
O728        C737   1.276       .  A
O729        C739   1.267       .  A
O730        C738   1.280       .  A
O731        C740   1.279       .  A
O732        C741   1.270       .  A
O733        C740   1.278       .  A
O734        C741   1.279       .  A
O735        C742   1.279       .  A
O736        C742   1.269       .  A
C738        C784   1.471       .  S
C739        C745   1.451       .  S
C742        C782   1.469       .  S
C743        N744   1.339       .  A
C743       N1052   1.345   1_554  A
C743        C906   1.411       .  S
N744       C1961   1.345       .  A
C745       N1960   1.345   1_455  A
C745       N1050   1.371   1_554  A
N746       C1049   1.371       .  A
N746       C1963   1.370   1_455  A
C747        C808   1.472       .  S
C747       N1962   1.370       .  A
C747        N748   1.359       .  A
N748       C1047   1.345       .  A
C749        C811   1.506       .  S
C749       N1966   1.369       .  A
N750       C1965   1.369   1_455  A
N750        C751   1.367       .  A
C751        C774   1.494       .  S
N752       C1969   1.365   1_455  A
C753        C859   1.497       .  S
C753       N1968   1.365       .  A
C753        N754   1.369       .  A
Zn755       O759   1.989       .  S
Zn755       O760   2.022       .  S
Zn755       O764   2.071       .  S
Zn755       O771   2.031       .  S
Zn756       O759   1.952       .  S
Zn756       O761   1.992       .  S
Zn756       O763   2.026       .  S
Zn756       O767   2.089       .  S
Zn757       O759   2.000       .  S
Zn757       O762   2.078       .  S
Zn757       O765   2.032       .  S
Zn757       O768   2.018       .  S
Zn758       O759   1.956       .  S
Zn758       O766   2.000       .  S
Zn758       O769   2.085       .  S
Zn758       O770   1.984       .  S
O760        C772   1.273       .  A
O761        C773   1.277       .  A
O762        C774   1.278       .  A
O763        C772   1.277       .  A
O764        C774   1.277       .  A
O765        C773   1.274       .  A
O766        C775   1.274       .  A
O767        C776   1.276       .  A
O768        C775   1.273       .  A
O769        C776   1.275       .  A
O770        C777   1.275       .  A
O771        C777   1.275       .  A
C773        C780   1.464       .  S
C776        C885   1.513       .  S
C777        C879   1.461       .  S
C778        N779   1.340       .  A
C778       N1087   1.345       .  A
C778        C899   1.415       .  S
N779        C780   1.350       .  A
C780       N1085   1.370       .  A
N781       C1084   1.370   1_554  A
N781        C782   1.369       .  A
C782        N783   1.357       .  A
N783       C1082   1.345   1_554  A
C784        N785   1.358       .  A
C784       N2005   1.369   1_455  A
N785        C786   1.345       .  A
C786        N787   1.340       .  A
C786        C898   1.412       .  S
N787       C2004   1.346   1_455  A
C788        C807   1.452       .  S
C788       N2003   1.346       .  A
C788        N789   1.371       .  A
N789       C2000   1.369       .  A
Zn790       O794   1.960       .  S
Zn790       O795   1.981       .  S
Zn790       O799   2.092       .  S
Zn790       O806   1.947       .  S
Zn791       O794   1.994       .  S
Zn791       O796   2.099       .  S
Zn791       O798   2.052       .  S
Zn791       O802   2.087       .  S
Zn792       O794   1.959       .  S
Zn792       O797   2.092       .  S
Zn792       O800   1.941       .  S
Zn792       O803   1.983       .  S
Zn793       O794   1.990       .  S
Zn793       O801   2.046       .  S
Zn793       O804   2.077       .  S
Zn793       O805   2.095       .  S
O795        C807   1.269       .  A
O796        C808   1.280       .  A
O797        C809   1.276       .  A
O798        C807   1.282       .  A
O799        C809   1.276       .  A
O800        C808   1.268       .  A
O801        C810   1.281       .  A
O802        C811   1.280       .  A
O803        C810   1.268       .  A
O804        C811   1.278       .  A
O805        C812   1.280       .  A
O806        C812   1.268       .  A
C809        C883   1.509       .  S
C810        C873   1.451       .  S
C813        N814   1.344       .  A
C813       N1122   1.348       .  A
C813        C896   1.417       .  S
N814       C2031   1.352   1_455  A
C815        C863   1.462       .  S
C815       N2030   1.352       .  A
C815       N1120   1.365       .  A
N816       C1119   1.365   1_554  A
N816       C2033   1.366       .  A
C817       N2032   1.366   1_455  A
C817        N818   1.356       .  A
N818       C1117   1.348   1_554  A
Zn819       O823   1.877       .  S
Zn819       O824   1.988       .  S
Zn819       O828   2.025       .  S
Zn819       O835   2.034       .  S
Zn820       O823   1.872       .  S
Zn820       O825   1.962       .  S
Zn820       O827   2.011       .  S
Zn820       O831   2.030       .  S
Zn821       O823   1.874       .  S
Zn821       O826   1.973       .  S
Zn821       O829   2.017       .  S
Zn821       O832   2.038       .  S
Zn822       O823   1.854       .  S
Zn822       O830   1.947       .  S
Zn822       O833   1.957       .  S
Zn822       O834   1.937       .  S
O824        C836   1.269       .  A
O825        C837   1.267       .  A
O826        C838   1.268       .  A
O827        C836   1.277       .  A
O828        C838   1.279       .  A
O829        C837   1.279       .  A
O830        C839   1.264       .  A
O831        C840   1.277       .  A
O832        C839   1.279       .  A
O833        C840   1.265       .  A
O834        C841   1.264       .  A
O835        C841   1.279       .  A
C836        C893   1.422       .  S
C837        C897   1.416       .  S
C838        C890   1.421       .  S
C839        C900   1.420       .  S
C840        C895   1.420       .  S
C841        C891   1.415       .  S
Zn842       O846   2.000       .  S
Zn842       O847   2.082       .  S
Zn842       O851   2.031       .  S
Zn842       O858   2.022       .  S
Zn843       O846   1.991       .  S
Zn843       O848   2.014       .  S
Zn843       O850   2.074       .  S
Zn843       O854   2.032       .  S
Zn844       O846   1.956       .  S
Zn844       O849   1.993       .  S
Zn844       O852   2.029       .  S
Zn844       O855   2.090       .  S
Zn845       O846   1.956       .  S
Zn845       O853   2.087       .  S
Zn845       O856   1.988       .  S
Zn845       O857   2.006       .  S
O847        C859   1.279       .  A
O848        C860   1.272       .  A
O849        C861   1.278       .  A
O850        C859   1.277       .  A
O851        C861   1.274       .  A
O852        C860   1.277       .  A
O853        C862   1.275       .  A
O854        C863   1.275       .  A
O855        C862   1.276       .  A
O856        C863   1.275       .  A
O857        C864   1.275       .  A
O858        C864   1.273       .  A
C861        C867   1.464       .  S
C862        C887   1.513       .  S
C865        N866   1.340       .  A
C865        N870   1.345       .  A
C865        C889   1.417       .  S
N866        C867   1.351       .  A
C867        N868   1.370       .  A
N868        C869   1.369       .  A
C869        N870   1.358       .  A
C871        N876   1.358       .  A
N872       C1177   1.372   1_554  A
C873       N1176   1.372       .  A
N874        C875   1.338       .  A
C875       N1180   1.345       .  A
C875        C892   1.411       .  S
N876       C1179   1.345   1_554  A
C877        N878   1.346       .  A
C877        N882   1.348       .  A
C877        C894   1.419       .  S
C879        N880   1.363       .  A
C881        N882   1.356       .  A
C883        N884   1.370       .  A
C883        N888   1.370       .  A
N884        C885   1.372       .  A
C885        N886   1.370       .  A
N886        C887   1.370       .  A
C887        N888   1.371       .  A
C889        C890   1.197       .  T
C891        C892   1.193       .  T
C893        C894   1.197       .  T
C895        C896   1.196       .  T
C897        C898   1.193       .  T
C899        C900   1.196       .  T
C901        C902   1.193       .  T
C903        C904   1.193       .  T
C905        C906   1.193       .  T
C907        C908   1.196       .  T
C909        C910   1.196       .  T
C911        C912   1.194       .  T
C913        C949   1.497       .  S
C913       N2134   1.367   1_455  A
N914        C915   1.367       .  A
C915       C1044   1.505       .  S
C915       N2132   1.370   1_455  A
N916       C2131   1.370       .  A
C917       C1007   1.504       .  S
C917        N918   1.367       .  A
N918       C2129   1.367       .  A
C919        C953   1.520       .  S
C919        N920   1.373       .  A
C919        N924   1.374       .  A
N920        C921   1.372       .  A
C921       C1041   1.505       .  S
C921        N922   1.366       .  A
N922        C923   1.366       .  A
C923       C1011   1.506       .  S
C923        N924   1.373       .  A
C925        N930   1.345       .  A
C925       C1215   1.414       .  S
N926        C927   1.356       .  A
C927       C1164   1.465       .  S
C927        N928   1.367       .  A
C929       C1009   1.454       .  S
C929        N930   1.347       .  A
Zn931       O935   1.958       .  S
Zn931       O936   2.013       .  S
Zn931       O940   1.997       .  S
Zn931       O947   2.101       .  S
Zn932       O935   1.992       .  S
Zn932       O937   2.078       .  S
Zn932       O939   2.018       .  S
Zn932       O943   2.024       .  S
Zn933       O935   1.993       .  S
Zn933       O938   2.023       .  S
Zn933       O941   2.078       .  S
Zn933       O944   2.012       .  S
Zn934       O935   1.960       .  S
Zn934       O942   2.005       .  S
Zn934       O945   1.989       .  S
Zn934       O946   2.097       .  S
O936        C948   1.276       .  A
O937        C949   1.278       .  A
O938        C950   1.274       .  A
O939        C948   1.273       .  A
O940        C950   1.277       .  A
O941        C949   1.278       .  A
O942        C951   1.275       .  A
O943        C952   1.274       .  A
O944        C951   1.273       .  A
O945        C952   1.276       .  A
O946        C953   1.277       .  A
O947        C953   1.277       .  A
C948       C1121   1.461       .  S
C950        C962   1.462       .  S
C951       C1185   1.458       .  S
C952        C956   1.460       .  S
C954       C1079   1.460       .  S
C954        N959   1.357       .  A
N957        C958   1.345       .  A
C958       C1214   1.417       .  S
C960       C1168   1.463       .  S
C960       N2177   1.365       .  A
C960        N965   1.356       .  A
N961       C2176   1.365   1_455  A
N961        C962   1.365       .  A
C962       N2179   1.351   1_455  A
N963       C2178   1.351       .  A
N963        C964   1.344       .  A
C964        N965   1.349       .  A
C964       C1212   1.416       .  S
Zn966       O970   1.870       .  S
Zn966       O971   1.970       .  S
Zn966       O975   2.026       .  S
Zn966       O982   2.014       .  S
Zn967       O970   1.867       .  S
Zn967       O972   2.032       .  S
Zn967       O974   2.010       .  S
Zn967       O978   1.959       .  S
Zn968       O970   1.852       .  S
Zn968       O973   1.947       .  S
Zn968       O976   1.956       .  S
Zn968       O979   1.938       .  S
Zn969       O970   1.870       .  S
Zn969       O977   2.039       .  S
Zn969       O980   2.021       .  S
Zn969       O981   1.981       .  S
O971        C983   1.268       .  A
O972        C984   1.278       .  A
O973        C985   1.265       .  A
O974        C983   1.277       .  A
O975        C985   1.278       .  A
O976        C984   1.265       .  A
O977        C986   1.280       .  A
O978        C987   1.266       .  A
O979        C986   1.264       .  A
O980        C987   1.280       .  A
O981        C988   1.268       .  A
O982        C988   1.277       .  A
C983       C1216   1.417       .  S
C984       C1211   1.421       .  S
C985       C1205   1.416       .  S
C986       C1208   1.416       .  S
C987       C1209   1.416       .  S
C988       C1213   1.421       .  S
Zn989       O993   1.952       .  S
Zn989       O994   1.970       .  S
Zn989       O998   1.945       .  S
Zn989      O1005   2.081       .  S
Zn990       O993   1.992       .  S
Zn990       O995   2.083       .  S
Zn990       O997   2.053       .  S
Zn990      O1001   2.102       .  S
Zn991       O993   1.991       .  S
Zn991       O996   2.083       .  S
Zn991       O999   2.075       .  S
Zn991      O1002   2.041       .  S
Zn992       O993   1.956       .  S
Zn992      O1000   1.991       .  S
Zn992      O1003   1.948       .  S
Zn992      O1004   2.093       .  S
O994       C1006   1.266       .  A
O995       C1007   1.279       .  A
O996       C1008   1.278       .  A
O997       C1006   1.282       .  A
O998       C1008   1.268       .  A
O999       C1007   1.280       .  A
O1000      C1009   1.270       .  A
O1001      C1010   1.281       .  A
O1002      C1009   1.280       .  A
O1003      C1010   1.268       .  A
O1004      C1011   1.277       .  A
O1005      C1011   1.275       .  A
C1006      C1016   1.450       .  S
C1008      C1173   1.468       .  S
C1010      C1175   1.474       .  S
C1012      N1013   1.347       .  A
C1012      N1017   1.339       .  A
C1012      C1207   1.411       .  S
N1013      C1014   1.358       .  A
C1014      C1116   1.471       .  S
N1015      C1016   1.370       .  A
C1018      N1019   1.349       .  A
C1018      N1023   1.344       .  A
C1018      C1206   1.412       .  S
N1019      C1020   1.355       .  A
C1020      C1076   1.466       .  S
C1020      N1021   1.367       .  A
N1021      C1022   1.366       .  A
C1022      C1045   1.453       .  S
C1022      N1023   1.347       .  A
Zn1024     O1028   1.954       .  S
Zn1024     O1029   2.082       .  S
Zn1024     O1033   1.973       .  S
Zn1024     O1040   1.948       .  S
Zn1025     O1028   1.957       .  S
Zn1025     O1030   1.949       .  S
Zn1025     O1032   2.091       .  S
Zn1025     O1036   1.990       .  S
Zn1026     O1028   1.991       .  S
Zn1026     O1031   2.054       .  S
Zn1026     O1034   2.096       .  S
Zn1026     O1037   2.082       .  S
Zn1027     O1028   1.990       .  S
Zn1027     O1035   2.076       .  S
Zn1027     O1038   2.040       .  S
Zn1027     O1039   2.085       .  S
O1029      C1041   1.275       .  A
O1030      C1042   1.268       .  A
O1031      C1043   1.282       .  A
O1032      C1041   1.276       .  A
O1033      C1043   1.267       .  A
O1034      C1042   1.280       .  A
O1035      C1044   1.279       .  A
O1036      C1045   1.270       .  A
O1037      C1044   1.278       .  A
O1038      C1045   1.279       .  A
O1039      C1046   1.279       .  A
O1040      C1046   1.269       .  A
C1042      C1088   1.471       .  S
C1043      C1049   1.451       .  S
C1046      C1086   1.469       .  S
C1047      N1048   1.339       .  A
C1047      C1210   1.411       .  S
N1048      C2265   1.345       .  A
C1049      N2264   1.345   1_455  A
N1050      C2267   1.370   1_455  A
C1051      C1112   1.472       .  S
C1051      N2266   1.370       .  A
C1051      N1052   1.359       .  A
C1053      C1115   1.506       .  S
C1053      N2270   1.369       .  A
N1054      C2269   1.369   1_455  A
N1054      C1055   1.367       .  A
C1055      C1078   1.494       .  S
N1056      C2273   1.365   1_455  A
C1057      C1163   1.497       .  S
C1057      N2272   1.365       .  A
C1057      N1058   1.369       .  A
Zn1059     O1063   1.989       .  S
Zn1059     O1064   2.022       .  S
Zn1059     O1068   2.071       .  S
Zn1059     O1075   2.031       .  S
Zn1060     O1063   1.952       .  S
Zn1060     O1065   1.992       .  S
Zn1060     O1067   2.026       .  S
Zn1060     O1071   2.089       .  S
Zn1061     O1063   2.000       .  S
Zn1061     O1066   2.078       .  S
Zn1061     O1069   2.032       .  S
Zn1061     O1072   2.018       .  S
Zn1062     O1063   1.956       .  S
Zn1062     O1070   2.000       .  S
Zn1062     O1073   2.085       .  S
Zn1062     O1074   1.984       .  S
O1064      C1076   1.273       .  A
O1065      C1077   1.277       .  A
O1066      C1078   1.278       .  A
O1067      C1076   1.277       .  A
O1068      C1078   1.277       .  A
O1069      C1077   1.274       .  A
O1070      C1079   1.274       .  A
O1071      C1080   1.276       .  A
O1072      C1079   1.273       .  A
O1073      C1080   1.275       .  A
O1074      C1081   1.275       .  A
O1075      C1081   1.275       .  A
C1077      C1084   1.464       .  S
C1080      C1189   1.513       .  S
C1081      C1183   1.461       .  S
C1082      N1083   1.340       .  A
C1082      C1203   1.415       .  S
N1083      C1084   1.350       .  A
N1085      C1086   1.369       .  A
C1086      N1087   1.357       .  A
C1088      N1089   1.358       .  A
C1088      N2309   1.369   1_455  A
N1089      C1090   1.345       .  A
C1090      N1091   1.340       .  A
C1090      C1202   1.412       .  S
N1091      C2308   1.346   1_455  A
C1092      C1111   1.452       .  S
C1092      N2307   1.346       .  A
C1092      N1093   1.371       .  A
N1093      C2304   1.369       .  A
Zn1094     O1098   1.960       .  S
Zn1094     O1099   1.981       .  S
Zn1094     O1103   2.092       .  S
Zn1094     O1110   1.947       .  S
Zn1095     O1098   1.994       .  S
Zn1095     O1100   2.099       .  S
Zn1095     O1102   2.052       .  S
Zn1095     O1106   2.087       .  S
Zn1096     O1098   1.959       .  S
Zn1096     O1101   2.092       .  S
Zn1096     O1104   1.941       .  S
Zn1096     O1107   1.983       .  S
Zn1097     O1098   1.990       .  S
Zn1097     O1105   2.046       .  S
Zn1097     O1108   2.077       .  S
Zn1097     O1109   2.095       .  S
O1099      C1111   1.269       .  A
O1100      C1112   1.280       .  A
O1101      C1113   1.276       .  A
O1102      C1111   1.282       .  A
O1103      C1113   1.276       .  A
O1104      C1112   1.268       .  A
O1105      C1114   1.281       .  A
O1106      C1115   1.280       .  A
O1107      C1114   1.268       .  A
O1108      C1115   1.278       .  A
O1109      C1116   1.280       .  A
O1110      C1116   1.268       .  A
C1113      C1187   1.509       .  S
C1114      C1177   1.451       .  S
C1117      N1118   1.344       .  A
C1117      C1200   1.417       .  S
N1118      C2335   1.352   1_455  A
C1119      C1167   1.462       .  S
C1119      N2334   1.352       .  A
N1120      C2337   1.366       .  A
C1121      N2336   1.366   1_455  A
C1121      N1122   1.356       .  A
Zn1123     O1127   1.877       .  S
Zn1123     O1128   1.988       .  S
Zn1123     O1132   2.025       .  S
Zn1123     O1139   2.034       .  S
Zn1124     O1127   1.872       .  S
Zn1124     O1129   1.962       .  S
Zn1124     O1131   2.011       .  S
Zn1124     O1135   2.030       .  S
Zn1125     O1127   1.874       .  S
Zn1125     O1130   1.973       .  S
Zn1125     O1133   2.017       .  S
Zn1125     O1136   2.038       .  S
Zn1126     O1127   1.854       .  S
Zn1126     O1134   1.947       .  S
Zn1126     O1137   1.957       .  S
Zn1126     O1138   1.937       .  S
O1128      C1140   1.269       .  A
O1129      C1141   1.267       .  A
O1130      C1142   1.268       .  A
O1131      C1140   1.277       .  A
O1132      C1142   1.279       .  A
O1133      C1141   1.279       .  A
O1134      C1143   1.264       .  A
O1135      C1144   1.277       .  A
O1136      C1143   1.279       .  A
O1137      C1144   1.265       .  A
O1138      C1145   1.264       .  A
O1139      C1145   1.279       .  A
C1140      C1197   1.422       .  S
C1141      C1201   1.416       .  S
C1142      C1194   1.421       .  S
C1143      C1204   1.420       .  S
C1144      C1199   1.420       .  S
C1145      C1195   1.415       .  S
Zn1146     O1150   2.000       .  S
Zn1146     O1151   2.082       .  S
Zn1146     O1155   2.031       .  S
Zn1146     O1162   2.022       .  S
Zn1147     O1150   1.991       .  S
Zn1147     O1152   2.014       .  S
Zn1147     O1154   2.074       .  S
Zn1147     O1158   2.032       .  S
Zn1148     O1150   1.956       .  S
Zn1148     O1153   1.993       .  S
Zn1148     O1156   2.029       .  S
Zn1148     O1159   2.090       .  S
Zn1149     O1150   1.956       .  S
Zn1149     O1157   2.087       .  S
Zn1149     O1160   1.988       .  S
Zn1149     O1161   2.006       .  S
O1151      C1163   1.279       .  A
O1152      C1164   1.272       .  A
O1153      C1165   1.278       .  A
O1154      C1163   1.277       .  A
O1155      C1165   1.274       .  A
O1156      C1164   1.277       .  A
O1157      C1166   1.275       .  A
O1158      C1167   1.275       .  A
O1159      C1166   1.276       .  A
O1160      C1167   1.275       .  A
O1161      C1168   1.275       .  A
O1162      C1168   1.273       .  A
C1165      C1171   1.464       .  S
C1166      C1191   1.513       .  S
C1169      N1170   1.340       .  A
C1169      N1174   1.345       .  A
C1169      C1193   1.417       .  S
N1170      C1171   1.351       .  A
C1171      N1172   1.370       .  A
N1172      C1173   1.369       .  A
C1173      N1174   1.358       .  A
C1175      N1180   1.358       .  A
N1178      C1179   1.338       .  A
C1179      C1196   1.411       .  S
C1181      N1182   1.346       .  A
C1181      N1186   1.348       .  A
C1181      C1198   1.419       .  S
C1183      N1184   1.363       .  A
C1185      N1186   1.356       .  A
C1187      N1188   1.370       .  A
C1187      N1192   1.370       .  A
N1188      C1189   1.372       .  A
C1189      N1190   1.370       .  A
N1190      C1191   1.370       .  A
C1191      N1192   1.371       .  A
C1193      C1194   1.197       .  T
C1195      C1196   1.193       .  T
C1197      C1198   1.197       .  T
C1199      C1200   1.196       .  T
C1201      C1202   1.193       .  T
C1203      C1204   1.196       .  T
C1205      C1206   1.193       .  T
C1207      C1208   1.193       .  T
C1209      C1210   1.193       .  T
C1211      C1212   1.196       .  T
C1213      C1214   1.196       .  T
C1215      C1216   1.194       .  T
C1217      C1253   1.497       .  S
C1217      N1826   1.368       .  A
N1218      C1825   1.368   1_545  A
N1218      C1219   1.367       .  A
C1219      C1348   1.505       .  S
N1220      C1829   1.370   1_545  A
C1221      C1311   1.504       .  S
C1221      N1828   1.370       .  A
C1221      N1222   1.367       .  A
C1223      C1257   1.520       .  S
C1223      N1224   1.373       .  A
C1223      N1228   1.374       .  A
N1224      C1225   1.372       .  A
C1225      C1345   1.505       .  S
C1225      N1226   1.366       .  A
N1226      C1227   1.366       .  A
C1227      C1315   1.506       .  S
C1227      N1228   1.373       .  A
C1229      N1534   1.350   1_554  A
C1229      N1234   1.345       .  A
C1229      C1519   1.414       .  S
N1230      C1533   1.350       .  A
N1230      C1231   1.356       .  A
C1231      C1468   1.465       .  S
C1231      N1232   1.367       .  A
N1232      C1537   1.365       .  A
C1233      C1313   1.454       .  S
C1233      N1536   1.365   1_554  A
C1233      N1234   1.347       .  A
Zn1235     O1239   1.958       .  S
Zn1235     O1240   2.013       .  S
Zn1235     O1244   1.997       .  S
Zn1235     O1251   2.101       .  S
Zn1236     O1239   1.992       .  S
Zn1236     O1241   2.078       .  S
Zn1236     O1243   2.018       .  S
Zn1236     O1247   2.024       .  S
Zn1237     O1239   1.993       .  S
Zn1237     O1242   2.023       .  S
Zn1237     O1245   2.078       .  S
Zn1237     O1248   2.012       .  S
Zn1238     O1239   1.960       .  S
Zn1238     O1246   2.005       .  S
Zn1238     O1249   1.989       .  S
Zn1238     O1250   2.097       .  S
O1240      C1252   1.276       .  A
O1241      C1253   1.277       .  A
O1242      C1254   1.274       .  A
O1243      C1252   1.273       .  A
O1244      C1254   1.277       .  A
O1245      C1253   1.278       .  A
O1246      C1255   1.275       .  A
O1247      C1256   1.274       .  A
O1248      C1255   1.273       .  A
O1249      C1256   1.276       .  A
O1250      C1257   1.277       .  A
O1251      C1257   1.277       .  A
C1252      C1425   1.461       .  S
C1254      C1266   1.462       .  S
C1255      C1489   1.458       .  S
C1256      C1260   1.460       .  S
C1258      C1383   1.460       .  S
C1258      N1867   1.364       .  A
C1258      N1263   1.357       .  A
N1259      C1866   1.364       .  A
N1259      C1564   1.363       .  A
C1260      N1563   1.363   1_554  A
C1260      N1869   1.351       .  A
N1261      C1868   1.351   1_545  A
N1261      C1262   1.345       .  A
C1262      N1567   1.348   1_554  A
C1262      C1518   1.417       .  S
N1263      C1566   1.348       .  A
C1264      C1472   1.463       .  S
C1264      N1269   1.356       .  A
N1265      C1266   1.365       .  A
N1267      C1268   1.344       .  A
C1268      N1269   1.349       .  A
C1268      C1516   1.416       .  S
Zn1270     O1274   1.870       .  S
Zn1270     O1275   1.970       .  S
Zn1270     O1279   2.026       .  S
Zn1270     O1286   2.014       .  S
Zn1271     O1274   1.867       .  S
Zn1271     O1276   2.032       .  S
Zn1271     O1278   2.010       .  S
Zn1271     O1282   1.959       .  S
Zn1272     O1274   1.852       .  S
Zn1272     O1277   1.947       .  S
Zn1272     O1280   1.956       .  S
Zn1272     O1283   1.938       .  S
Zn1273     O1274   1.870       .  S
Zn1273     O1281   2.039       .  S
Zn1273     O1284   2.021       .  S
Zn1273     O1285   1.981       .  S
O1275      C1287   1.268       .  A
O1276      C1288   1.278       .  A
O1277      C1289   1.265       .  A
O1278      C1287   1.277       .  A
O1279      C1289   1.278       .  A
O1280      C1288   1.265       .  A
O1281      C1290   1.280       .  A
O1282      C1291   1.266       .  A
O1283      C1290   1.264       .  A
O1284      C1291   1.280       .  A
O1285      C1292   1.268       .  A
O1286      C1292   1.277       .  A
C1287      C1520   1.417       .  S
C1288      C1515   1.421       .  S
C1289      C1509   1.416       .  S
C1290      C1512   1.416       .  S
C1291      C1513   1.416       .  S
C1292      C1517   1.421       .  S
Zn1293     O1297   1.952       .  S
Zn1293     O1298   1.970       .  S
Zn1293     O1302   1.945       .  S
Zn1293     O1309   2.081       .  S
Zn1294     O1297   1.992       .  S
Zn1294     O1299   2.083       .  S
Zn1294     O1301   2.053       .  S
Zn1294     O1305   2.102       .  S
Zn1295     O1297   1.991       .  S
Zn1295     O1300   2.083       .  S
Zn1295     O1303   2.075       .  S
Zn1295     O1306   2.041       .  S
Zn1296     O1297   1.956       .  S
Zn1296     O1304   1.991       .  S
Zn1296     O1307   1.948       .  S
Zn1296     O1308   2.093       .  S
O1298      C1310   1.266       .  A
O1299      C1311   1.279       .  A
O1300      C1312   1.278       .  A
O1301      C1310   1.282       .  A
O1302      C1312   1.268       .  A
O1303      C1311   1.280       .  A
O1304      C1313   1.270       .  A
O1305      C1314   1.281       .  A
O1306      C1313   1.280       .  A
O1307      C1314   1.268       .  A
O1308      C1315   1.277       .  A
O1309      C1315   1.275       .  A
C1310      C1320   1.450       .  S
C1312      C1477   1.468       .  S
C1314      C1479   1.474       .  S
C1316      N1317   1.347       .  A
C1316      N1321   1.339       .  A
C1316      C1511   1.411       .  S
N1317      C1318   1.358       .  A
C1318      C1420   1.471       .  S
C1318      N1927   1.369   1_545  A
N1319      C1926   1.369       .  A
N1319      C1320   1.370       .  A
C1320      N1929   1.345       .  A
N1321      C1928   1.345   1_545  A
C1322      N1323   1.349       .  A
C1322      N1327   1.344       .  A
C1322      C1510   1.412       .  S
N1323      C1324   1.355       .  A
C1324      C1380   1.466       .  S
C1324      N1325   1.367       .  A
N1325      C1326   1.366       .  A
C1326      C1349   1.453       .  S
C1326      N1327   1.347       .  A
Zn1328     O1332   1.954       .  S
Zn1328     O1333   2.082       .  S
Zn1328     O1337   1.973       .  S
Zn1328     O1344   1.948       .  S
Zn1329     O1332   1.957       .  S
Zn1329     O1334   1.949       .  S
Zn1329     O1336   2.091       .  S
Zn1329     O1340   1.990       .  S
Zn1330     O1332   1.991       .  S
Zn1330     O1335   2.054       .  S
Zn1330     O1338   2.096       .  S
Zn1330     O1341   2.082       .  S
Zn1331     O1332   1.990       .  S
Zn1331     O1339   2.076       .  S
Zn1331     O1342   2.040       .  S
Zn1331     O1343   2.085       .  S
O1333      C1345   1.275       .  A
O1334      C1346   1.268       .  A
O1335      C1347   1.282       .  A
O1336      C1345   1.276       .  A
O1337      C1347   1.267       .  A
O1338      C1346   1.280       .  A
O1339      C1348   1.279       .  A
O1340      C1349   1.270       .  A
O1341      C1348   1.279       .  A
O1342      C1349   1.279       .  A
O1343      C1350   1.279       .  A
O1344      C1350   1.269       .  A
C1346      C1392   1.471       .  S
C1347      C1353   1.451       .  S
C1350      C1390   1.469       .  S
C1351      N1352   1.339       .  A
C1351      N1660   1.345   1_554  A
C1351      C1514   1.411       .  S
C1353      N1658   1.371   1_554  A
N1354      C1657   1.371       .  A
C1355      C1416   1.472       .  S
C1355      N1356   1.359       .  A
N1356      C1655   1.345       .  A
C1357      C1419   1.506       .  S
C1357      N1970   1.370   1_545  A
N1358      C1359   1.367       .  A
C1359      C1382   1.494       .  S
C1359      N1968   1.365   1_545  A
N1360      C1967   1.365       .  A
C1361      C1467   1.497       .  S
C1361      N1362   1.369       .  A
N1362      C1965   1.370       .  A
Zn1363     O1367   1.989       .  S
Zn1363     O1368   2.022       .  S
Zn1363     O1372   2.071       .  S
Zn1363     O1379   2.031       .  S
Zn1364     O1367   1.952       .  S
Zn1364     O1369   1.992       .  S
Zn1364     O1371   2.026       .  S
Zn1364     O1375   2.089       .  S
Zn1365     O1367   2.000       .  S
Zn1365     O1370   2.078       .  S
Zn1365     O1373   2.032       .  S
Zn1365     O1376   2.018       .  S
Zn1366     O1367   1.956       .  S
Zn1366     O1374   2.000       .  S
Zn1366     O1377   2.085       .  S
Zn1366     O1378   1.984       .  S
O1368      C1380   1.273       .  A
O1369      C1381   1.277       .  A
O1370      C1382   1.278       .  A
O1371      C1380   1.277       .  A
O1372      C1382   1.277       .  A
O1373      C1381   1.274       .  A
O1374      C1383   1.274       .  A
O1375      C1384   1.276       .  A
O1376      C1383   1.273       .  A
O1377      C1384   1.275       .  A
O1378      C1385   1.275       .  A
O1379      C1385   1.275       .  A
C1381      C1388   1.464       .  S
C1384      C1493   1.513       .  S
C1385      C1487   1.461       .  S
C1386      N1387   1.340       .  A
C1386      N1695   1.345       .  A
C1386      C1507   1.415       .  S
N1387      C1388   1.350       .  A
C1388      N1693   1.370       .  A
N1389      C1692   1.370   1_554  A
N1389      C1390   1.369       .  A
C1390      N1391   1.357       .  A
N1391      C1690   1.345   1_554  A
C1392      N1393   1.358       .  A
N1393      C1394   1.345       .  A
C1394      N1395   1.340       .  A
C1394      C1506   1.412       .  S
C1396      C1415   1.452       .  S
C1396      N1397   1.371       .  A
Zn1398     O1402   1.960       .  S
Zn1398     O1403   1.981       .  S
Zn1398     O1407   2.092       .  S
Zn1398     O1414   1.947       .  S
Zn1399     O1402   1.994       .  S
Zn1399     O1404   2.099       .  S
Zn1399     O1406   2.052       .  S
Zn1399     O1410   2.087       .  S
Zn1400     O1402   1.959       .  S
Zn1400     O1405   2.092       .  S
Zn1400     O1408   1.941       .  S
Zn1400     O1411   1.983       .  S
Zn1401     O1402   1.990       .  S
Zn1401     O1409   2.046       .  S
Zn1401     O1412   2.077       .  S
Zn1401     O1413   2.095       .  S
O1403      C1415   1.269       .  A
O1404      C1416   1.280       .  A
O1405      C1417   1.276       .  A
O1406      C1415   1.282       .  A
O1407      C1417   1.276       .  A
O1408      C1416   1.268       .  A
O1409      C1418   1.281       .  A
O1410      C1419   1.280       .  A
O1411      C1418   1.268       .  A
O1412      C1419   1.278       .  A
O1413      C1420   1.280       .  A
O1414      C1420   1.268       .  A
C1417      C1491   1.509       .  S
C1418      C1481   1.451       .  S
C1421      N1422   1.344       .  A
C1421      N1730   1.348       .  A
C1421      C1504   1.417       .  S
C1423      C1471   1.462       .  S
C1423      N1728   1.365       .  A
N1424      C1727   1.365   1_554  A
C1425      N1426   1.356       .  A
N1426      C1725   1.348   1_554  A
Zn1427     O1431   1.877       .  S
Zn1427     O1432   1.988       .  S
Zn1427     O1436   2.025       .  S
Zn1427     O1443   2.034       .  S
Zn1428     O1431   1.872       .  S
Zn1428     O1433   1.962       .  S
Zn1428     O1435   2.011       .  S
Zn1428     O1439   2.029       .  S
Zn1429     O1431   1.874       .  S
Zn1429     O1434   1.973       .  S
Zn1429     O1437   2.017       .  S
Zn1429     O1440   2.038       .  S
Zn1430     O1431   1.854       .  S
Zn1430     O1438   1.947       .  S
Zn1430     O1441   1.957       .  S
Zn1430     O1442   1.937       .  S
O1432      C1444   1.269       .  A
O1433      C1445   1.267       .  A
O1434      C1446   1.268       .  A
O1435      C1444   1.277       .  A
O1436      C1446   1.279       .  A
O1437      C1445   1.279       .  A
O1438      C1447   1.264       .  A
O1439      C1448   1.277       .  A
O1440      C1447   1.279       .  A
O1441      C1448   1.265       .  A
O1442      C1449   1.264       .  A
O1443      C1449   1.279       .  A
C1444      C1501   1.422       .  S
C1445      C1505   1.416       .  S
C1446      C1498   1.421       .  S
C1447      C1508   1.420       .  S
C1448      C1503   1.420       .  S
C1449      C1499   1.415       .  S
Zn1450     O1454   2.000       .  S
Zn1450     O1455   2.082       .  S
Zn1450     O1459   2.031       .  S
Zn1450     O1466   2.022       .  S
Zn1451     O1454   1.991       .  S
Zn1451     O1456   2.014       .  S
Zn1451     O1458   2.074       .  S
Zn1451     O1462   2.032       .  S
Zn1452     O1454   1.956       .  S
Zn1452     O1457   1.993       .  S
Zn1452     O1460   2.029       .  S
Zn1452     O1463   2.090       .  S
Zn1453     O1454   1.956       .  S
Zn1453     O1461   2.087       .  S
Zn1453     O1464   1.988       .  S
Zn1453     O1465   2.006       .  S
O1455      C1467   1.279       .  A
O1456      C1468   1.272       .  A
O1457      C1469   1.278       .  A
O1458      C1467   1.277       .  A
O1459      C1469   1.274       .  A
O1460      C1468   1.277       .  A
O1461      C1470   1.275       .  A
O1462      C1471   1.275       .  A
O1463      C1470   1.276       .  A
O1464      C1471   1.275       .  A
O1465      C1472   1.275       .  A
O1466      C1472   1.273       .  A
C1469      C1475   1.464       .  S
C1470      C1495   1.513       .  S
C1473      N1474   1.340       .  A
C1473      N1478   1.345       .  A
C1473      C1497   1.417       .  S
N1474      C1475   1.351       .  A
C1475      N1476   1.370       .  A
N1476      C1477   1.369       .  A
C1477      N1478   1.358       .  A
C1479      N2088   1.370       .  A
C1479      N1484   1.358       .  A
N1480      C2087   1.370   1_545  A
N1480      C1785   1.372   1_554  A
C1481      N1784   1.372       .  A
C1481      N2090   1.345   1_545  A
N1482      C2089   1.345       .  A
N1482      C1483   1.338       .  A
C1483      N1788   1.345       .  A
C1483      C1500   1.411       .  S
N1484      C1787   1.345   1_554  A
C1485      N1486   1.346       .  A
C1485      N1490   1.348       .  A
C1485      C1502   1.419       .  S
N1486      C2095   1.352       .  A
C1487      N2094   1.352   1_545  A
C1487      N1488   1.363       .  A
N1488      C2097   1.364   1_545  A
C1489      N2096   1.364       .  A
C1489      N1490   1.356       .  A
C1491      N1492   1.370       .  A
C1491      N1496   1.370       .  A
N1492      C1493   1.372       .  A
C1493      N1494   1.370       .  A
N1494      C1495   1.370       .  A
C1495      N1496   1.371       .  A
C1497      C1498   1.197       .  T
C1499      C1500   1.193       .  T
C1501      C1502   1.197       .  T
C1503      C1504   1.196       .  T
C1505      C1506   1.193       .  T
C1507      C1508   1.196       .  T
C1509      C1510   1.193       .  T
C1511      C1512   1.193       .  T
C1513      C1514   1.193       .  T
C1515      C1516   1.196       .  T
C1517      C1518   1.196       .  T
C1519      C1520   1.194       .  T
C1521      C1557   1.497       .  S
C1521      N2130   1.368       .  A
N1522      C2129   1.368   1_545  A
N1522      C1523   1.367       .  A
C1523      C1652   1.505       .  S
N1524      C2133   1.370   1_545  A
C1525      C1615   1.504       .  S
C1525      N2132   1.370       .  A
C1525      N1526   1.367       .  A
C1527      C1561   1.520       .  S
C1527      N1528   1.373       .  A
C1527      N1532   1.374       .  A
N1528      C1529   1.372       .  A
C1529      C1649   1.505       .  S
C1529      N1530   1.366       .  A
N1530      C1531   1.366       .  A
C1531      C1619   1.506       .  S
C1531      N1532   1.373       .  A
C1533      N1538   1.345       .  A
C1533      C1823   1.414       .  S
N1534      C1535   1.356       .  A
C1535      C1772   1.465       .  S
C1535      N1536   1.367       .  A
C1537      C1617   1.454       .  S
C1537      N1538   1.347       .  A
Zn1539     O1543   1.958       .  S
Zn1539     O1544   2.013       .  S
Zn1539     O1548   1.997       .  S
Zn1539     O1555   2.101       .  S
Zn1540     O1543   1.992       .  S
Zn1540     O1545   2.078       .  S
Zn1540     O1547   2.018       .  S
Zn1540     O1551   2.024       .  S
Zn1541     O1543   1.993       .  S
Zn1541     O1546   2.023       .  S
Zn1541     O1549   2.078       .  S
Zn1541     O1552   2.012       .  S
Zn1542     O1543   1.960       .  S
Zn1542     O1550   2.005       .  S
Zn1542     O1553   1.989       .  S
Zn1542     O1554   2.097       .  S
O1544      C1556   1.276       .  A
O1545      C1557   1.277       .  A
O1546      C1558   1.274       .  A
O1547      C1556   1.273       .  A
O1548      C1558   1.277       .  A
O1549      C1557   1.278       .  A
O1550      C1559   1.275       .  A
O1551      C1560   1.274       .  A
O1552      C1559   1.273       .  A
O1553      C1560   1.276       .  A
O1554      C1561   1.277       .  A
O1555      C1561   1.277       .  A
C1556      C1729   1.461       .  S
C1558      C1570   1.462       .  S
C1559      C1793   1.458       .  S
C1560      C1564   1.460       .  S
C1562      C1687   1.460       .  S
C1562      N2171   1.364       .  A
C1562      N1567   1.357       .  A
N1563      C2170   1.364       .  A
C1564      N2173   1.351       .  A
N1565      C2172   1.351   1_545  A
N1565      C1566   1.345       .  A
C1566      C1822   1.417       .  S
C1568      C1776   1.463       .  S
C1568      N1573   1.356       .  A
N1569      C1570   1.365       .  A
N1571      C1572   1.344       .  A
C1572      N1573   1.349       .  A
C1572      C1820   1.416       .  S
Zn1574     O1578   1.870       .  S
Zn1574     O1579   1.970       .  S
Zn1574     O1583   2.026       .  S
Zn1574     O1590   2.014       .  S
Zn1575     O1578   1.867       .  S
Zn1575     O1580   2.032       .  S
Zn1575     O1582   2.010       .  S
Zn1575     O1586   1.959       .  S
Zn1576     O1578   1.852       .  S
Zn1576     O1581   1.947       .  S
Zn1576     O1584   1.956       .  S
Zn1576     O1587   1.938       .  S
Zn1577     O1578   1.870       .  S
Zn1577     O1585   2.039       .  S
Zn1577     O1588   2.021       .  S
Zn1577     O1589   1.981       .  S
O1579      C1591   1.268       .  A
O1580      C1592   1.278       .  A
O1581      C1593   1.265       .  A
O1582      C1591   1.277       .  A
O1583      C1593   1.278       .  A
O1584      C1592   1.265       .  A
O1585      C1594   1.280       .  A
O1586      C1595   1.266       .  A
O1587      C1594   1.264       .  A
O1588      C1595   1.280       .  A
O1589      C1596   1.268       .  A
O1590      C1596   1.277       .  A
C1591      C1824   1.417       .  S
C1592      C1819   1.421       .  S
C1593      C1813   1.416       .  S
C1594      C1816   1.416       .  S
C1595      C1817   1.416       .  S
C1596      C1821   1.421       .  S
Zn1597     O1601   1.952       .  S
Zn1597     O1602   1.970       .  S
Zn1597     O1606   1.945       .  S
Zn1597     O1613   2.081       .  S
Zn1598     O1601   1.992       .  S
Zn1598     O1603   2.083       .  S
Zn1598     O1605   2.053       .  S
Zn1598     O1609   2.102       .  S
Zn1599     O1601   1.991       .  S
Zn1599     O1604   2.083       .  S
Zn1599     O1607   2.075       .  S
Zn1599     O1610   2.041       .  S
Zn1600     O1601   1.956       .  S
Zn1600     O1608   1.991       .  S
Zn1600     O1611   1.948       .  S
Zn1600     O1612   2.093       .  S
O1602      C1614   1.266       .  A
O1603      C1615   1.279       .  A
O1604      C1616   1.278       .  A
O1605      C1614   1.282       .  A
O1606      C1616   1.268       .  A
O1607      C1615   1.280       .  A
O1608      C1617   1.270       .  A
O1609      C1618   1.281       .  A
O1610      C1617   1.280       .  A
O1611      C1618   1.268       .  A
O1612      C1619   1.277       .  A
O1613      C1619   1.275       .  A
C1614      C1624   1.450       .  S
C1616      C1781   1.468       .  S
C1618      C1783   1.474       .  S
C1620      N1621   1.347       .  A
C1620      N1625   1.339       .  A
C1620      C1815   1.411       .  S
N1621      C1622   1.358       .  A
C1622      C1724   1.471       .  S
C1622      N2231   1.369   1_545  A
N1623      C2230   1.369       .  A
N1623      C1624   1.370       .  A
C1624      N2233   1.345       .  A
N1625      C2232   1.345   1_545  A
C1626      N1627   1.349       .  A
C1626      N1631   1.344       .  A
C1626      C1814   1.412       .  S
N1627      C1628   1.355       .  A
C1628      C1684   1.466       .  S
C1628      N1629   1.367       .  A
N1629      C1630   1.366       .  A
C1630      C1653   1.453       .  S
C1630      N1631   1.347       .  A
Zn1632     O1636   1.954       .  S
Zn1632     O1637   2.082       .  S
Zn1632     O1641   1.973       .  S
Zn1632     O1648   1.948       .  S
Zn1633     O1636   1.957       .  S
Zn1633     O1638   1.949       .  S
Zn1633     O1640   2.091       .  S
Zn1633     O1644   1.990       .  S
Zn1634     O1636   1.991       .  S
Zn1634     O1639   2.054       .  S
Zn1634     O1642   2.096       .  S
Zn1634     O1645   2.082       .  S
Zn1635     O1636   1.990       .  S
Zn1635     O1643   2.076       .  S
Zn1635     O1646   2.040       .  S
Zn1635     O1647   2.085       .  S
O1637      C1649   1.275       .  A
O1638      C1650   1.268       .  A
O1639      C1651   1.282       .  A
O1640      C1649   1.276       .  A
O1641      C1651   1.267       .  A
O1642      C1650   1.280       .  A
O1643      C1652   1.279       .  A
O1644      C1653   1.270       .  A
O1645      C1652   1.278       .  A
O1646      C1653   1.279       .  A
O1647      C1654   1.279       .  A
O1648      C1654   1.269       .  A
C1650      C1696   1.471       .  S
C1651      C1657   1.451       .  S
C1654      C1694   1.469       .  S
C1655      N1656   1.339       .  A
C1655      C1818   1.411       .  S
C1659      C1720   1.472       .  S
C1659      N1660   1.359       .  A
C1661      C1723   1.506       .  S
C1661      N2274   1.370   1_545  A
N1662      C1663   1.367       .  A
C1663      C1686   1.494       .  S
C1663      N2272   1.365   1_545  A
N1664      C2271   1.365       .  A
C1665      C1771   1.497       .  S
C1665      N1666   1.369       .  A
N1666      C2269   1.370       .  A
Zn1667     O1671   1.989       .  S
Zn1667     O1672   2.022       .  S
Zn1667     O1676   2.071       .  S
Zn1667     O1683   2.031       .  S
Zn1668     O1671   1.952       .  S
Zn1668     O1673   1.992       .  S
Zn1668     O1675   2.026       .  S
Zn1668     O1679   2.089       .  S
Zn1669     O1671   2.000       .  S
Zn1669     O1674   2.078       .  S
Zn1669     O1677   2.032       .  S
Zn1669     O1680   2.018       .  S
Zn1670     O1671   1.956       .  S
Zn1670     O1678   2.000       .  S
Zn1670     O1681   2.085       .  S
Zn1670     O1682   1.984       .  S
O1672      C1684   1.273       .  A
O1673      C1685   1.277       .  A
O1674      C1686   1.278       .  A
O1675      C1684   1.277       .  A
O1676      C1686   1.277       .  A
O1677      C1685   1.274       .  A
O1678      C1687   1.274       .  A
O1679      C1688   1.276       .  A
O1680      C1687   1.273       .  A
O1681      C1688   1.275       .  A
O1682      C1689   1.275       .  A
O1683      C1689   1.275       .  A
C1685      C1692   1.464       .  S
C1688      C1797   1.513       .  S
C1689      C1791   1.461       .  S
C1690      N1691   1.340       .  A
C1690      C1811   1.415       .  S
N1691      C1692   1.350       .  A
N1693      C1694   1.369       .  A
C1694      N1695   1.357       .  A
C1696      N1697   1.358       .  A
N1697      C1698   1.345       .  A
C1698      N1699   1.340       .  A
C1698      C1810   1.412       .  S
C1700      C1719   1.452       .  S
C1700      N1701   1.371       .  A
Zn1702     O1706   1.960       .  S
Zn1702     O1707   1.981       .  S
Zn1702     O1711   2.092       .  S
Zn1702     O1718   1.947       .  S
Zn1703     O1706   1.994       .  S
Zn1703     O1708   2.099       .  S
Zn1703     O1710   2.052       .  S
Zn1703     O1714   2.087       .  S
Zn1704     O1706   1.959       .  S
Zn1704     O1709   2.092       .  S
Zn1704     O1712   1.941       .  S
Zn1704     O1715   1.983       .  S
Zn1705     O1706   1.990       .  S
Zn1705     O1713   2.046       .  S
Zn1705     O1716   2.077       .  S
Zn1705     O1717   2.095       .  S
O1707      C1719   1.269       .  A
O1708      C1720   1.280       .  A
O1709      C1721   1.276       .  A
O1710      C1719   1.282       .  A
O1711      C1721   1.276       .  A
O1712      C1720   1.268       .  A
O1713      C1722   1.281       .  A
O1714      C1723   1.280       .  A
O1715      C1722   1.268       .  A
O1716      C1723   1.278       .  A
O1717      C1724   1.280       .  A
O1718      C1724   1.268       .  A
C1721      C1795   1.509       .  S
C1722      C1785   1.451       .  S
C1725      N1726   1.344       .  A
C1725      C1808   1.417       .  S
C1727      C1775   1.462       .  S
C1729      N1730   1.356       .  A
Zn1731     O1735   1.877       .  S
Zn1731     O1736   1.988       .  S
Zn1731     O1740   2.025       .  S
Zn1731     O1747   2.034       .  S
Zn1732     O1735   1.872       .  S
Zn1732     O1737   1.962       .  S
Zn1732     O1739   2.011       .  S
Zn1732     O1743   2.029       .  S
Zn1733     O1735   1.874       .  S
Zn1733     O1738   1.973       .  S
Zn1733     O1741   2.017       .  S
Zn1733     O1744   2.038       .  S
Zn1734     O1735   1.854       .  S
Zn1734     O1742   1.947       .  S
Zn1734     O1745   1.957       .  S
Zn1734     O1746   1.937       .  S
O1736      C1748   1.269       .  A
O1737      C1749   1.267       .  A
O1738      C1750   1.268       .  A
O1739      C1748   1.277       .  A
O1740      C1750   1.279       .  A
O1741      C1749   1.279       .  A
O1742      C1751   1.264       .  A
O1743      C1752   1.277       .  A
O1744      C1751   1.279       .  A
O1745      C1752   1.265       .  A
O1746      C1753   1.264       .  A
O1747      C1753   1.279       .  A
C1748      C1805   1.422       .  S
C1749      C1809   1.416       .  S
C1750      C1802   1.421       .  S
C1751      C1812   1.420       .  S
C1752      C1807   1.420       .  S
C1753      C1803   1.415       .  S
Zn1754     O1758   2.000       .  S
Zn1754     O1759   2.082       .  S
Zn1754     O1763   2.031       .  S
Zn1754     O1770   2.022       .  S
Zn1755     O1758   1.991       .  S
Zn1755     O1760   2.014       .  S
Zn1755     O1762   2.074       .  S
Zn1755     O1766   2.032       .  S
Zn1756     O1758   1.956       .  S
Zn1756     O1761   1.993       .  S
Zn1756     O1764   2.029       .  S
Zn1756     O1767   2.090       .  S
Zn1757     O1758   1.956       .  S
Zn1757     O1765   2.087       .  S
Zn1757     O1768   1.988       .  S
Zn1757     O1769   2.006       .  S
O1759      C1771   1.279       .  A
O1760      C1772   1.272       .  A
O1761      C1773   1.278       .  A
O1762      C1771   1.277       .  A
O1763      C1773   1.274       .  A
O1764      C1772   1.277       .  A
O1765      C1774   1.275       .  A
O1766      C1775   1.275       .  A
O1767      C1774   1.276       .  A
O1768      C1775   1.275       .  A
O1769      C1776   1.275       .  A
O1770      C1776   1.273       .  A
C1773      C1779   1.464       .  S
C1774      C1799   1.513       .  S
C1777      N1778   1.340       .  A
C1777      N1782   1.345       .  A
C1777      C1801   1.417       .  S
N1778      C1779   1.351       .  A
C1779      N1780   1.370       .  A
N1780      C1781   1.369       .  A
C1781      N1782   1.358       .  A
C1783      N2392   1.370       .  A
C1783      N1788   1.358       .  A
N1784      C2391   1.370   1_545  A
C1785      N2394   1.345   1_545  A
N1786      C2393   1.345       .  A
N1786      C1787   1.338       .  A
C1787      C1804   1.411       .  S
C1789      N1790   1.346       .  A
C1789      N1794   1.348       .  A
C1789      C1806   1.419       .  S
N1790      C2399   1.352       .  A
C1791      N2398   1.352   1_545  A
C1791      N1792   1.363       .  A
N1792      C2401   1.364   1_545  A
C1793      N2400   1.364       .  A
C1793      N1794   1.356       .  A
C1795      N1796   1.370       .  A
C1795      N1800   1.370       .  A
N1796      C1797   1.372       .  A
C1797      N1798   1.370       .  A
N1798      C1799   1.370       .  A
C1799      N1800   1.371       .  A
C1801      C1802   1.197       .  T
C1803      C1804   1.193       .  T
C1805      C1806   1.197       .  T
C1807      C1808   1.196       .  T
C1809      C1810   1.193       .  T
C1811      C1812   1.196       .  T
C1813      C1814   1.193       .  T
C1815      C1816   1.193       .  T
C1817      C1818   1.193       .  T
C1819      C1820   1.196       .  T
C1821      C1822   1.196       .  T
C1823      C1824   1.194       .  T
C1825      C1861   1.497       .  S
N1826      C1827   1.367       .  A
C1827      C1956   1.505       .  S
C1829      C1919   1.504       .  S
C1829      N1830   1.367       .  A
C1831      C1865   1.520       .  S
C1831      N1832   1.373       .  A
C1831      N1836   1.374       .  A
N1832      C1833   1.372       .  A
C1833      C1953   1.505       .  S
C1833      N1834   1.366       .  A
N1834      C1835   1.366       .  A
C1835      C1923   1.506       .  S
C1835      N1836   1.373       .  A
C1837      N2142   1.350   1_554  A
C1837      N1842   1.345       .  A
C1837      C2127   1.414       .  S
N1838      C2141   1.350       .  A
N1838      C1839   1.356       .  A
C1839      C2076   1.465       .  S
C1839      N1840   1.367       .  A
N1840      C2145   1.365       .  A
C1841      C1921   1.454       .  S
C1841      N2144   1.365   1_554  A
C1841      N1842   1.347       .  A
Zn1843     O1847   1.958       .  S
Zn1843     O1848   2.013       .  S
Zn1843     O1852   1.997       .  S
Zn1843     O1859   2.101       .  S
Zn1844     O1847   1.992       .  S
Zn1844     O1849   2.078       .  S
Zn1844     O1851   2.018       .  S
Zn1844     O1855   2.024       .  S
Zn1845     O1847   1.993       .  S
Zn1845     O1850   2.023       .  S
Zn1845     O1853   2.078       .  S
Zn1845     O1856   2.012       .  S
Zn1846     O1847   1.960       .  S
Zn1846     O1854   2.005       .  S
Zn1846     O1857   1.989       .  S
Zn1846     O1858   2.097       .  S
O1848      C1860   1.276       .  A
O1849      C1861   1.278       .  A
O1850      C1862   1.274       .  A
O1851      C1860   1.273       .  A
O1852      C1862   1.277       .  A
O1853      C1861   1.278       .  A
O1854      C1863   1.275       .  A
O1855      C1864   1.274       .  A
O1856      C1863   1.273       .  A
O1857      C1864   1.276       .  A
O1858      C1865   1.277       .  A
O1859      C1865   1.277       .  A
C1860      C2033   1.461       .  S
C1862      C1874   1.462       .  S
C1863      C2097   1.458       .  S
C1864      C1868   1.460       .  S
C1866      C1991   1.460       .  S
C1866      N1871   1.357       .  A
N1867      C2172   1.363   1_545  A
C1868      N2171   1.363   1_564  A
N1869      C1870   1.345       .  A
C1870      N2175   1.348   1_554  A
C1870      C2126   1.417       .  S
N1871      C2174   1.348       .  A
C1872      C2080   1.463       .  S
C1872      N1877   1.356       .  A
N1873      C1874   1.365       .  A
N1875      C1876   1.344       .  A
C1876      N1877   1.349       .  A
C1876      C2124   1.416       .  S
Zn1878     O1882   1.870       .  S
Zn1878     O1883   1.970       .  S
Zn1878     O1887   2.026       .  S
Zn1878     O1894   2.014       .  S
Zn1879     O1882   1.867       .  S
Zn1879     O1884   2.032       .  S
Zn1879     O1886   2.010       .  S
Zn1879     O1890   1.959       .  S
Zn1880     O1882   1.852       .  S
Zn1880     O1885   1.947       .  S
Zn1880     O1888   1.956       .  S
Zn1880     O1891   1.938       .  S
Zn1881     O1882   1.870       .  S
Zn1881     O1889   2.039       .  S
Zn1881     O1892   2.021       .  S
Zn1881     O1893   1.981       .  S
O1883      C1895   1.268       .  A
O1884      C1896   1.278       .  A
O1885      C1897   1.265       .  A
O1886      C1895   1.277       .  A
O1887      C1897   1.278       .  A
O1888      C1896   1.265       .  A
O1889      C1898   1.280       .  A
O1890      C1899   1.266       .  A
O1891      C1898   1.264       .  A
O1892      C1899   1.280       .  A
O1893      C1900   1.268       .  A
O1894      C1900   1.277       .  A
C1895      C2128   1.417       .  S
C1896      C2123   1.421       .  S
C1897      C2117   1.416       .  S
C1898      C2120   1.416       .  S
C1899      C2121   1.416       .  S
C1900      C2125   1.421       .  S
Zn1901     O1905   1.952       .  S
Zn1901     O1906   1.970       .  S
Zn1901     O1910   1.945       .  S
Zn1901     O1917   2.081       .  S
Zn1902     O1905   1.992       .  S
Zn1902     O1907   2.083       .  S
Zn1902     O1909   2.053       .  S
Zn1902     O1913   2.102       .  S
Zn1903     O1905   1.991       .  S
Zn1903     O1908   2.083       .  S
Zn1903     O1911   2.075       .  S
Zn1903     O1914   2.041       .  S
Zn1904     O1905   1.956       .  S
Zn1904     O1912   1.991       .  S
Zn1904     O1915   1.948       .  S
Zn1904     O1916   2.093       .  S
O1906      C1918   1.266       .  A
O1907      C1919   1.279       .  A
O1908      C1920   1.278       .  A
O1909      C1918   1.282       .  A
O1910      C1920   1.268       .  A
O1911      C1919   1.280       .  A
O1912      C1921   1.270       .  A
O1913      C1922   1.281       .  A
O1914      C1921   1.280       .  A
O1915      C1922   1.268       .  A
O1916      C1923   1.277       .  A
O1917      C1923   1.275       .  A
C1918      C1928   1.450       .  S
C1920      C2085   1.468       .  S
C1922      C2087   1.474       .  S
C1924      N1925   1.347       .  A
C1924      N1929   1.339       .  A
C1924      C2119   1.411       .  S
N1925      C1926   1.358       .  A
C1926      C2028   1.471       .  S
N1927      C1928   1.370       .  A
C1930      N1931   1.349       .  A
C1930      N1935   1.344       .  A
C1930      C2118   1.412       .  S
N1931      C1932   1.355       .  A
C1932      C1988   1.466       .  S
C1932      N1933   1.367       .  A
N1933      C1934   1.366       .  A
C1934      C1957   1.453       .  S
C1934      N1935   1.347       .  A
Zn1936     O1940   1.954       .  S
Zn1936     O1941   2.082       .  S
Zn1936     O1945   1.973       .  S
Zn1936     O1952   1.948       .  S
Zn1937     O1940   1.957       .  S
Zn1937     O1942   1.949       .  S
Zn1937     O1944   2.091       .  S
Zn1937     O1948   1.990       .  S
Zn1938     O1940   1.991       .  S
Zn1938     O1943   2.054       .  S
Zn1938     O1946   2.096       .  S
Zn1938     O1949   2.082       .  S
Zn1939     O1940   1.990       .  S
Zn1939     O1947   2.076       .  S
Zn1939     O1950   2.040       .  S
Zn1939     O1951   2.085       .  S
O1941      C1953   1.275       .  A
O1942      C1954   1.268       .  A
O1943      C1955   1.282       .  A
O1944      C1953   1.276       .  A
O1945      C1955   1.267       .  A
O1946      C1954   1.280       .  A
O1947      C1956   1.279       .  A
O1948      C1957   1.270       .  A
O1949      C1956   1.278       .  A
O1950      C1957   1.279       .  A
O1951      C1958   1.279       .  A
O1952      C1958   1.269       .  A
C1954      C2000   1.471       .  S
C1955      C1961   1.451       .  S
C1958      C1998   1.469       .  S
C1959      N1960   1.339       .  A
C1959      N2268   1.345   1_554  A
C1959      C2122   1.411       .  S
C1961      N2266   1.371   1_554  A
N1962      C2265   1.371       .  A
C1963      C2024   1.472       .  S
C1963      N1964   1.359       .  A
N1964      C2263   1.345       .  A
C1965      C2027   1.506       .  S
N1966      C1967   1.367       .  A
C1967      C1990   1.494       .  S
C1969      C2075   1.497       .  S
C1969      N1970   1.369       .  A
Zn1971     O1975   1.989       .  S
Zn1971     O1976   2.022       .  S
Zn1971     O1980   2.071       .  S
Zn1971     O1987   2.031       .  S
Zn1972     O1975   1.952       .  S
Zn1972     O1977   1.992       .  S
Zn1972     O1979   2.026       .  S
Zn1972     O1983   2.089       .  S
Zn1973     O1975   2.000       .  S
Zn1973     O1978   2.078       .  S
Zn1973     O1981   2.032       .  S
Zn1973     O1984   2.018       .  S
Zn1974     O1975   1.956       .  S
Zn1974     O1982   2.000       .  S
Zn1974     O1985   2.085       .  S
Zn1974     O1986   1.984       .  S
O1976      C1988   1.273       .  A
O1977      C1989   1.277       .  A
O1978      C1990   1.278       .  A
O1979      C1988   1.277       .  A
O1980      C1990   1.277       .  A
O1981      C1989   1.274       .  A
O1982      C1991   1.274       .  A
O1983      C1992   1.276       .  A
O1984      C1991   1.273       .  A
O1985      C1992   1.275       .  A
O1986      C1993   1.275       .  A
O1987      C1993   1.275       .  A
C1989      C1996   1.464       .  S
C1992      C2101   1.513       .  S
C1993      C2095   1.461       .  S
C1994      N1995   1.340       .  A
C1994      N2303   1.345       .  A
C1994      C2115   1.415       .  S
N1995      C1996   1.350       .  A
C1996      N2301   1.370       .  A
N1997      C2300   1.370   1_554  A
N1997      C1998   1.369       .  A
C1998      N1999   1.357       .  A
N1999      C2298   1.345   1_554  A
C2000      N2001   1.358       .  A
N2001      C2002   1.345       .  A
C2002      N2003   1.340       .  A
C2002      C2114   1.412       .  S
C2004      C2023   1.452       .  S
C2004      N2005   1.371       .  A
Zn2006     O2010   1.960       .  S
Zn2006     O2011   1.981       .  S
Zn2006     O2015   2.092       .  S
Zn2006     O2022   1.947       .  S
Zn2007     O2010   1.994       .  S
Zn2007     O2012   2.099       .  S
Zn2007     O2014   2.052       .  S
Zn2007     O2018   2.087       .  S
Zn2008     O2010   1.959       .  S
Zn2008     O2013   2.092       .  S
Zn2008     O2016   1.941       .  S
Zn2008     O2019   1.983       .  S
Zn2009     O2010   1.990       .  S
Zn2009     O2017   2.046       .  S
Zn2009     O2020   2.077       .  S
Zn2009     O2021   2.095       .  S
O2011      C2023   1.269       .  A
O2012      C2024   1.280       .  A
O2013      C2025   1.276       .  A
O2014      C2023   1.282       .  A
O2015      C2025   1.276       .  A
O2016      C2024   1.268       .  A
O2017      C2026   1.281       .  A
O2018      C2027   1.280       .  A
O2019      C2026   1.268       .  A
O2020      C2027   1.278       .  A
O2021      C2028   1.280       .  A
O2022      C2028   1.268       .  A
C2025      C2099   1.509       .  S
C2026      C2089   1.451       .  S
C2029      N2030   1.344       .  A
C2029      N2338   1.348       .  A
C2029      C2112   1.417       .  S
C2031      C2079   1.462       .  S
C2031      N2336   1.365       .  A
N2032      C2335   1.365   1_554  A
C2033      N2034   1.356       .  A
N2034      C2333   1.348   1_554  A
Zn2035     O2039   1.877       .  S
Zn2035     O2040   1.988       .  S
Zn2035     O2044   2.025       .  S
Zn2035     O2051   2.034       .  S
Zn2036     O2039   1.872       .  S
Zn2036     O2041   1.962       .  S
Zn2036     O2043   2.011       .  S
Zn2036     O2047   2.030       .  S
Zn2037     O2039   1.874       .  S
Zn2037     O2042   1.973       .  S
Zn2037     O2045   2.017       .  S
Zn2037     O2048   2.038       .  S
Zn2038     O2039   1.854       .  S
Zn2038     O2046   1.947       .  S
Zn2038     O2049   1.957       .  S
Zn2038     O2050   1.937       .  S
O2040      C2052   1.269       .  A
O2041      C2053   1.267       .  A
O2042      C2054   1.268       .  A
O2043      C2052   1.277       .  A
O2044      C2054   1.279       .  A
O2045      C2053   1.279       .  A
O2046      C2055   1.264       .  A
O2047      C2056   1.277       .  A
O2048      C2055   1.279       .  A
O2049      C2056   1.265       .  A
O2050      C2057   1.264       .  A
O2051      C2057   1.279       .  A
C2052      C2109   1.422       .  S
C2053      C2113   1.416       .  S
C2054      C2106   1.421       .  S
C2055      C2116   1.420       .  S
C2056      C2111   1.420       .  S
C2057      C2107   1.415       .  S
Zn2058     O2062   2.000       .  S
Zn2058     O2063   2.082       .  S
Zn2058     O2067   2.031       .  S
Zn2058     O2074   2.022       .  S
Zn2059     O2062   1.991       .  S
Zn2059     O2064   2.014       .  S
Zn2059     O2066   2.074       .  S
Zn2059     O2070   2.032       .  S
Zn2060     O2062   1.956       .  S
Zn2060     O2065   1.993       .  S
Zn2060     O2068   2.029       .  S
Zn2060     O2071   2.090       .  S
Zn2061     O2062   1.956       .  S
Zn2061     O2069   2.087       .  S
Zn2061     O2072   1.988       .  S
Zn2061     O2073   2.006       .  S
O2063      C2075   1.279       .  A
O2064      C2076   1.272       .  A
O2065      C2077   1.278       .  A
O2066      C2075   1.277       .  A
O2067      C2077   1.274       .  A
O2068      C2076   1.277       .  A
O2069      C2078   1.275       .  A
O2070      C2079   1.275       .  A
O2071      C2078   1.276       .  A
O2072      C2079   1.275       .  A
O2073      C2080   1.275       .  A
O2074      C2080   1.273       .  A
C2077      C2083   1.464       .  S
C2078      C2103   1.513       .  S
C2081      N2082   1.340       .  A
C2081      N2086   1.345       .  A
C2081      C2105   1.417       .  S
N2082      C2083   1.351       .  A
C2083      N2084   1.370       .  A
N2084      C2085   1.369       .  A
C2085      N2086   1.358       .  A
C2087      N2092   1.358       .  A
N2088      C2393   1.372   1_554  A
C2089      N2392   1.372       .  A
N2090      C2091   1.338       .  A
C2091      N2396   1.345       .  A
C2091      C2108   1.411       .  S
N2092      C2395   1.345   1_554  A
C2093      N2094   1.346       .  A
C2093      N2098   1.348       .  A
C2093      C2110   1.419       .  S
C2095      N2096   1.363       .  A
C2097      N2098   1.356       .  A
C2099      N2100   1.370       .  A
C2099      N2104   1.370       .  A
N2100      C2101   1.372       .  A
C2101      N2102   1.370       .  A
N2102      C2103   1.370       .  A
C2103      N2104   1.371       .  A
C2105      C2106   1.197       .  T
C2107      C2108   1.193       .  T
C2109      C2110   1.197       .  T
C2111      C2112   1.196       .  T
C2113      C2114   1.193       .  T
C2115      C2116   1.196       .  T
C2117      C2118   1.193       .  T
C2119      C2120   1.193       .  T
C2121      C2122   1.193       .  T
C2123      C2124   1.196       .  T
C2125      C2126   1.196       .  T
C2127      C2128   1.194       .  T
C2129      C2165   1.497       .  S
N2130      C2131   1.367       .  A
C2131      C2260   1.505       .  S
C2133      C2223   1.504       .  S
C2133      N2134   1.367       .  A
C2135      C2169   1.520       .  S
C2135      N2136   1.373       .  A
C2135      N2140   1.374       .  A
N2136      C2137   1.372       .  A
C2137      C2257   1.505       .  S
C2137      N2138   1.366       .  A
N2138      C2139   1.366       .  A
C2139      C2227   1.506       .  S
C2139      N2140   1.373       .  A
C2141      N2146   1.345       .  A
C2141      C2431   1.414       .  S
N2142      C2143   1.356       .  A
C2143      C2380   1.465       .  S
C2143      N2144   1.367       .  A
C2145      C2225   1.454       .  S
C2145      N2146   1.347       .  A
Zn2147     O2151   1.958       .  S
Zn2147     O2152   2.013       .  S
Zn2147     O2156   1.997       .  S
Zn2147     O2163   2.101       .  S
Zn2148     O2151   1.992       .  S
Zn2148     O2153   2.078       .  S
Zn2148     O2155   2.018       .  S
Zn2148     O2159   2.024       .  S
Zn2149     O2151   1.993       .  S
Zn2149     O2154   2.023       .  S
Zn2149     O2157   2.078       .  S
Zn2149     O2160   2.012       .  S
Zn2150     O2151   1.960       .  S
Zn2150     O2158   2.005       .  S
Zn2150     O2161   1.989       .  S
Zn2150     O2162   2.097       .  S
O2152      C2164   1.276       .  A
O2153      C2165   1.278       .  A
O2154      C2166   1.274       .  A
O2155      C2164   1.273       .  A
O2156      C2166   1.277       .  A
O2157      C2165   1.278       .  A
O2158      C2167   1.275       .  A
O2159      C2168   1.274       .  A
O2160      C2167   1.273       .  A
O2161      C2168   1.276       .  A
O2162      C2169   1.277       .  A
O2163      C2169   1.277       .  A
C2164      C2337   1.461       .  S
C2166      C2178   1.462       .  S
C2167      C2401   1.458       .  S
C2168      C2172   1.460       .  S
C2170      C2295   1.460       .  S
C2170      N2175   1.357       .  A
N2173      C2174   1.345       .  A
C2174      C2430   1.417       .  S
C2176      C2384   1.463       .  S
C2176      N2181   1.356       .  A
N2177      C2178   1.365       .  A
N2179      C2180   1.344       .  A
C2180      N2181   1.349       .  A
C2180      C2428   1.416       .  S
Zn2182     O2186   1.870       .  S
Zn2182     O2187   1.970       .  S
Zn2182     O2191   2.026       .  S
Zn2182     O2198   2.014       .  S
Zn2183     O2186   1.867       .  S
Zn2183     O2188   2.032       .  S
Zn2183     O2190   2.010       .  S
Zn2183     O2194   1.959       .  S
Zn2184     O2186   1.852       .  S
Zn2184     O2189   1.947       .  S
Zn2184     O2192   1.956       .  S
Zn2184     O2195   1.938       .  S
Zn2185     O2186   1.870       .  S
Zn2185     O2193   2.039       .  S
Zn2185     O2196   2.021       .  S
Zn2185     O2197   1.981       .  S
O2187      C2199   1.268       .  A
O2188      C2200   1.278       .  A
O2189      C2201   1.265       .  A
O2190      C2199   1.277       .  A
O2191      C2201   1.278       .  A
O2192      C2200   1.265       .  A
O2193      C2202   1.280       .  A
O2194      C2203   1.266       .  A
O2195      C2202   1.264       .  A
O2196      C2203   1.280       .  A
O2197      C2204   1.268       .  A
O2198      C2204   1.277       .  A
C2199      C2432   1.417       .  S
C2200      C2427   1.421       .  S
C2201      C2421   1.416       .  S
C2202      C2424   1.416       .  S
C2203      C2425   1.416       .  S
C2204      C2429   1.421       .  S
Zn2205     O2209   1.952       .  S
Zn2205     O2210   1.970       .  S
Zn2205     O2214   1.945       .  S
Zn2205     O2221   2.081       .  S
Zn2206     O2209   1.992       .  S
Zn2206     O2211   2.083       .  S
Zn2206     O2213   2.053       .  S
Zn2206     O2217   2.102       .  S
Zn2207     O2209   1.991       .  S
Zn2207     O2212   2.083       .  S
Zn2207     O2215   2.075       .  S
Zn2207     O2218   2.041       .  S
Zn2208     O2209   1.956       .  S
Zn2208     O2216   1.991       .  S
Zn2208     O2219   1.948       .  S
Zn2208     O2220   2.093       .  S
O2210      C2222   1.266       .  A
O2211      C2223   1.279       .  A
O2212      C2224   1.278       .  A
O2213      C2222   1.282       .  A
O2214      C2224   1.268       .  A
O2215      C2223   1.280       .  A
O2216      C2225   1.270       .  A
O2217      C2226   1.281       .  A
O2218      C2225   1.280       .  A
O2219      C2226   1.268       .  A
O2220      C2227   1.277       .  A
O2221      C2227   1.275       .  A
C2222      C2232   1.450       .  S
C2224      C2389   1.468       .  S
C2226      C2391   1.474       .  S
C2228      N2229   1.347       .  A
C2228      N2233   1.339       .  A
C2228      C2423   1.411       .  S
N2229      C2230   1.358       .  A
C2230      C2332   1.471       .  S
N2231      C2232   1.370       .  A
C2234      N2235   1.349       .  A
C2234      N2239   1.344       .  A
C2234      C2422   1.412       .  S
N2235      C2236   1.355       .  A
C2236      C2292   1.466       .  S
C2236      N2237   1.367       .  A
N2237      C2238   1.366       .  A
C2238      C2261   1.453       .  S
C2238      N2239   1.347       .  A
Zn2240     O2244   1.954       .  S
Zn2240     O2245   2.082       .  S
Zn2240     O2249   1.973       .  S
Zn2240     O2256   1.948       .  S
Zn2241     O2244   1.957       .  S
Zn2241     O2246   1.949       .  S
Zn2241     O2248   2.091       .  S
Zn2241     O2252   1.990       .  S
Zn2242     O2244   1.991       .  S
Zn2242     O2247   2.054       .  S
Zn2242     O2250   2.096       .  S
Zn2242     O2253   2.082       .  S
Zn2243     O2244   1.990       .  S
Zn2243     O2251   2.076       .  S
Zn2243     O2254   2.040       .  S
Zn2243     O2255   2.085       .  S
O2245      C2257   1.275       .  A
O2246      C2258   1.268       .  A
O2247      C2259   1.282       .  A
O2248      C2257   1.276       .  A
O2249      C2259   1.267       .  A
O2250      C2258   1.280       .  A
O2251      C2260   1.279       .  A
O2252      C2261   1.270       .  A
O2253      C2260   1.278       .  A
O2254      C2261   1.279       .  A
O2255      C2262   1.279       .  A
O2256      C2262   1.269       .  A
C2258      C2304   1.471       .  S
C2259      C2265   1.451       .  S
C2262      C2302   1.469       .  S
C2263      N2264   1.339       .  A
C2263      C2426   1.411       .  S
C2267      C2328   1.472       .  S
C2267      N2268   1.359       .  A
C2269      C2331   1.506       .  S
N2270      C2271   1.367       .  A
C2271      C2294   1.494       .  S
C2273      C2379   1.497       .  S
C2273      N2274   1.369       .  A
Zn2275     O2279   1.989       .  S
Zn2275     O2280   2.022       .  S
Zn2275     O2284   2.071       .  S
Zn2275     O2291   2.031       .  S
Zn2276     O2279   1.952       .  S
Zn2276     O2281   1.992       .  S
Zn2276     O2283   2.026       .  S
Zn2276     O2287   2.089       .  S
Zn2277     O2279   2.000       .  S
Zn2277     O2282   2.078       .  S
Zn2277     O2285   2.032       .  S
Zn2277     O2288   2.018       .  S
Zn2278     O2279   1.956       .  S
Zn2278     O2286   2.000       .  S
Zn2278     O2289   2.085       .  S
Zn2278     O2290   1.984       .  S
O2280      C2292   1.273       .  A
O2281      C2293   1.277       .  A
O2282      C2294   1.278       .  A
O2283      C2292   1.277       .  A
O2284      C2294   1.277       .  A
O2285      C2293   1.274       .  A
O2286      C2295   1.274       .  A
O2287      C2296   1.276       .  A
O2288      C2295   1.273       .  A
O2289      C2296   1.275       .  A
O2290      C2297   1.275       .  A
O2291      C2297   1.275       .  A
C2293      C2300   1.464       .  S
C2296      C2405   1.513       .  S
C2297      C2399   1.461       .  S
C2298      N2299   1.340       .  A
C2298      C2419   1.415       .  S
N2299      C2300   1.350       .  A
N2301      C2302   1.369       .  A
C2302      N2303   1.357       .  A
C2304      N2305   1.358       .  A
N2305      C2306   1.345       .  A
C2306      N2307   1.340       .  A
C2306      C2418   1.412       .  S
C2308      C2327   1.452       .  S
C2308      N2309   1.371       .  A
Zn2310     O2314   1.960       .  S
Zn2310     O2315   1.981       .  S
Zn2310     O2319   2.092       .  S
Zn2310     O2326   1.947       .  S
Zn2311     O2314   1.994       .  S
Zn2311     O2316   2.099       .  S
Zn2311     O2318   2.052       .  S
Zn2311     O2322   2.087       .  S
Zn2312     O2314   1.959       .  S
Zn2312     O2317   2.092       .  S
Zn2312     O2320   1.941       .  S
Zn2312     O2323   1.983       .  S
Zn2313     O2314   1.990       .  S
Zn2313     O2321   2.046       .  S
Zn2313     O2324   2.077       .  S
Zn2313     O2325   2.095       .  S
O2315      C2327   1.269       .  A
O2316      C2328   1.280       .  A
O2317      C2329   1.276       .  A
O2318      C2327   1.282       .  A
O2319      C2329   1.276       .  A
O2320      C2328   1.268       .  A
O2321      C2330   1.281       .  A
O2322      C2331   1.280       .  A
O2323      C2330   1.268       .  A
O2324      C2331   1.278       .  A
O2325      C2332   1.280       .  A
O2326      C2332   1.268       .  A
C2329      C2403   1.509       .  S
C2330      C2393   1.451       .  S
C2333      N2334   1.344       .  A
C2333      C2416   1.417       .  S
C2335      C2383   1.462       .  S
C2337      N2338   1.356       .  A
Zn2339     O2343   1.877       .  S
Zn2339     O2344   1.988       .  S
Zn2339     O2348   2.025       .  S
Zn2339     O2355   2.034       .  S
Zn2340     O2343   1.872       .  S
Zn2340     O2345   1.962       .  S
Zn2340     O2347   2.011       .  S
Zn2340     O2351   2.030       .  S
Zn2341     O2343   1.874       .  S
Zn2341     O2346   1.973       .  S
Zn2341     O2349   2.017       .  S
Zn2341     O2352   2.038       .  S
Zn2342     O2343   1.854       .  S
Zn2342     O2350   1.947       .  S
Zn2342     O2353   1.957       .  S
Zn2342     O2354   1.937       .  S
O2344      C2356   1.269       .  A
O2345      C2357   1.267       .  A
O2346      C2358   1.268       .  A
O2347      C2356   1.277       .  A
O2348      C2358   1.279       .  A
O2349      C2357   1.279       .  A
O2350      C2359   1.264       .  A
O2351      C2360   1.277       .  A
O2352      C2359   1.279       .  A
O2353      C2360   1.265       .  A
O2354      C2361   1.264       .  A
O2355      C2361   1.279       .  A
C2356      C2413   1.422       .  S
C2357      C2417   1.416       .  S
C2358      C2410   1.421       .  S
C2359      C2420   1.420       .  S
C2360      C2415   1.420       .  S
C2361      C2411   1.415       .  S
Zn2362     O2366   2.000       .  S
Zn2362     O2367   2.082       .  S
Zn2362     O2371   2.031       .  S
Zn2362     O2378   2.022       .  S
Zn2363     O2366   1.991       .  S
Zn2363     O2368   2.014       .  S
Zn2363     O2370   2.074       .  S
Zn2363     O2374   2.032       .  S
Zn2364     O2366   1.956       .  S
Zn2364     O2369   1.993       .  S
Zn2364     O2372   2.029       .  S
Zn2364     O2375   2.090       .  S
Zn2365     O2366   1.956       .  S
Zn2365     O2373   2.087       .  S
Zn2365     O2376   1.988       .  S
Zn2365     O2377   2.006       .  S
O2367      C2379   1.279       .  A
O2368      C2380   1.272       .  A
O2369      C2381   1.278       .  A
O2370      C2379   1.277       .  A
O2371      C2381   1.274       .  A
O2372      C2380   1.277       .  A
O2373      C2382   1.275       .  A
O2374      C2383   1.275       .  A
O2375      C2382   1.276       .  A
O2376      C2383   1.275       .  A
O2377      C2384   1.275       .  A
O2378      C2384   1.273       .  A
C2381      C2387   1.464       .  S
C2382      C2407   1.513       .  S
C2385      N2386   1.340       .  A
C2385      N2390   1.345       .  A
C2385      C2409   1.417       .  S
N2386      C2387   1.351       .  A
C2387      N2388   1.370       .  A
N2388      C2389   1.369       .  A
C2389      N2390   1.358       .  A
C2391      N2396   1.358       .  A
N2394      C2395   1.338       .  A
C2395      C2412   1.411       .  S
C2397      N2398   1.346       .  A
C2397      N2402   1.348       .  A
C2397      C2414   1.419       .  S
C2399      N2400   1.363       .  A
C2401      N2402   1.356       .  A
C2403      N2404   1.370       .  A
C2403      N2408   1.370       .  A
N2404      C2405   1.372       .  A
C2405      N2406   1.370       .  A
N2406      C2407   1.370       .  A
C2407      N2408   1.371       .  A
C2409      C2410   1.197       .  T
C2411      C2412   1.193       .  T
C2413      C2414   1.197       .  T
C2415      C2416   1.196       .  T
C2417      C2418   1.193       .  T
C2419      C2420   1.196       .  T
C2421      C2422   1.193       .  T
C2423      C2424   1.193       .  T
C2425      C2426   1.193       .  T
C2427      C2428   1.196       .  T
C2429      C2430   1.196       .  T
C2431      C2432   1.194       .  T
