geometry optimzed in LAMMPS
_audit_creation_date              2020-11-30 
_audit_creation_method            'lammps2cif' 
_symmetry_space_group_name_H-M    'P1' 
_symmetry_Int_Tables_number       1 
_symmetry_cell_setting            triclinic 
loop_ 
_symmetry_equiv_pos_as_xyz 
  x,y,z 
_cell_length_a                    29.02466887 
_cell_length_b                    29.043944150870665 
_cell_length_c                    87.05896562977495 
_cell_angle_alpha                 90.06924293729065 
_cell_angle_beta                  89.99681337305509 
_cell_angle_gamma                 119.96306645994103 
loop_ 
_atom_site_label 
_atom_site_type_symbol 
_atom_site_fract_x 
_atom_site_fract_y 
_atom_site_fract_z 
_atom_site_charge 
O1          O  0.96381931  0.98388364  0.22846590    -0.71300
O2          O  0.96209560  0.97405930  0.27204237    -0.71500
O3          O  0.96155740  0.04363621  0.25167803    -0.71300
O4          O  0.96371239  0.91447258  0.24886426    -0.71400
O5          O  0.05005525  0.95805795  0.25002314    -0.71300
O6          O  0.04795230  0.08804993  0.25106915    -0.71300
O7          O  0.04839196  0.02169289  0.27231737    -0.71300
O8          O  0.05022805  0.02532308  0.22876371    -0.71500
V9          V  0.96447952  0.97990882  0.25026089     1.35200
V10         V  0.04751233  0.02237833  0.25053987     1.35200
C11         C  0.00737817  0.00586366  0.22121096     0.78000
C12         C  0.00506745  0.99691393  0.27956957     0.78000
C13         C  0.00429991  0.08782646  0.25163367     0.77900
C14         C  0.00701092  0.91411152  0.24922411     0.77900
O15         O  0.96455372  0.47695358  0.27215326    -0.71300
O16         O  0.96340531  0.48297821  0.22857292    -0.71500
O17         O  0.96352003  0.41460971  0.24926247    -0.71300
O18         O  0.96435705  0.54584706  0.25144860    -0.71400
O19         O  0.05057621  0.58848589  0.24972017    -0.71300
O20         O  0.04983140  0.45748096  0.25061556    -0.71300
O21         O  0.04966812  0.52127934  0.22838139    -0.71300
O22         O  0.05079971  0.52516650  0.27198880    -0.71500
V23         V  0.96556786  0.48096683  0.25036015     1.35200
V24         V  0.04856695  0.52222171  0.25018697     1.35200
C25         C  0.00790149  0.50095404  0.27947141     0.78000
C26         C  0.00635305  0.50218827  0.22106397     0.78000
C27         C  0.00660973  0.41378519  0.24979570     0.77900
C28         C  0.00765956  0.58950265  0.25066204     0.77900
O29         O  0.53254518  0.01504121  0.22822561    -0.71300
O30         O  0.53189515  0.01607752  0.27185431    -0.71500
O31         O  0.53074973  0.94932478  0.25020124    -0.71300
O32         O  0.53380597  0.08140803  0.24983211    -0.71400
O33         O  0.44747803  0.03977742  0.25093249    -0.71300
O34         O  0.44442861  0.90729427  0.24897566    -0.71300
O35         O  0.44552227  0.96976388  0.27176556    -0.71300
O36         O  0.44628435  0.97678591  0.22816289    -0.71500
V37         V  0.53054742  0.01456688  0.25003532     1.35200
V38         V  0.44753319  0.97427260  0.24995656     1.35200
C39         C  0.48953634  0.99661423  0.22078609     0.78000
C40         C  0.48868751  0.99213688  0.27921133     0.78000
C41         C  0.48725304  0.90590300  0.24950976     0.77900
C42         C  0.49123559  0.08312205  0.25044099     0.77900
O43         O  0.54306498  0.58765326  0.24824917    -0.71300
O44         O  0.54765028  0.45926456  0.25130485    -0.71500
O45         O  0.54560121  0.51892496  0.22797478    -0.71300
O46         O  0.54503514  0.52853244  0.27160017    -0.71400
O47         O  0.45889600  0.47927716  0.27151809    -0.71300
O48         O  0.45918530  0.47672938  0.22790340    -0.71300
O49         O  0.46133400  0.41427431  0.25019351    -0.71300
O50         O  0.45674871  0.54248849  0.24929692    -0.71500
V51         V  0.54373445  0.52272530  0.24977985     1.35200
V52         V  0.46074973  0.47915161  0.24972128     1.35200
C53         C  0.49913539  0.58690378  0.24854715     0.78000
C54         C  0.50504264  0.41483278  0.25104713     0.78000
C55         C  0.50239954  0.49661781  0.22052122     0.77900
C56         C  0.50177892  0.50475851  0.27896717     0.77900
O57         O  0.02437916  0.03782547  0.43860508    -0.71300
O58         O  0.01942041  0.03560945  0.39505807    -0.71500
O59         O  0.95765691  0.03997827  0.41746149    -0.71300
O60         O  0.08494507  0.03302505  0.41622097    -0.71400
O61         O  0.03877986  0.94680235  0.41733142    -0.71300
O62         O  0.91160266  0.95367637  0.41707581    -0.71300
O63         O  0.97436297  0.94924323  0.39534632    -0.71300
O64         O  0.97576302  0.95169168  0.43900435    -0.71500
V65         V  0.02062695  0.03493656  0.41684104     1.35200
V66         V  0.97602591  0.95201910  0.41717977     1.35200
C67         C  0.00101474  0.99517643  0.44620390     0.78000
C68         C  0.99649912  0.99213883  0.38780081     0.78000
C69         C  0.91288293  0.99778011  0.41727085     0.77900
C70         C  0.08352252  0.98884412  0.41680974     0.77900
O71         O  0.98188301  0.46751842  0.43842481    -0.71300
O72         O  0.98176882  0.46870282  0.39496296    -0.71500
O73         O  0.04707868  0.46796405  0.41666533    -0.71300
O74         O  0.91659550  0.46838673  0.41684518    -0.71400
O75         O  0.95994873  0.55465133  0.41558860    -0.71300
O76         O  0.09044266  0.55418375  0.41827498    -0.71300
O77         O  0.02990286  0.55490114  0.39512125    -0.71300
O78         O  0.02121109  0.55380195  0.43873939    -0.71500
V79         V  0.98266674  0.46984403  0.41671651     1.35200
V80         V  0.02447011  0.55281247  0.41692339     1.35200
C81         C  0.00129070  0.51031269  0.44597521     0.78000
C82         C  0.00685600  0.51179932  0.38765025     0.78000
C83         C  0.09088296  0.51093257  0.41773013     0.77900
C84         C  0.91603482  0.51151558  0.41604648     0.77900
O85         O  0.51389367  0.02991376  0.43853272    -0.71300
O86         O  0.51648972  0.02972611  0.39499599    -0.71500
O87         O  0.44795553  0.02638744  0.41639053    -0.71300
O88         O  0.58188450  0.03274488  0.41718682    -0.71400
O89         O  0.54135464  0.94649935  0.41603456    -0.71300
O90         O  0.40760262  0.94017150  0.41760831    -0.71300
O91         O  0.47226638  0.94335516  0.39492566    -0.71300
O92         O  0.47703467  0.94382566  0.43864009    -0.71500
V93         V  0.51416490  0.02800833  0.41677369     1.35200
V94         V  0.47535002  0.94508710  0.41679383     1.35200
C95         C  0.49585732  0.98710745  0.44599555     0.78000
C96         C  0.49467663  0.98662056  0.38754362     0.78000
C97         C  0.40509168  0.98231878  0.41713021     0.77900
C98         C  0.58428044  0.99052710  0.41654747     0.77900
O99         O  0.52604898  0.55172328  0.43861509    -0.71300
O100        O  0.52472672  0.55338566  0.39497357    -0.71500
O101        O  0.46105058  0.55511844  0.41725659    -0.71300
O102        O  0.58910915  0.54983142  0.41631162    -0.71400
O103        O  0.54358401  0.46350656  0.41670913    -0.71300
O104        O  0.41550537  0.46882891  0.41635801    -0.71300
O105        O  0.48010126  0.46702105  0.39466550    -0.71300
O106        O  0.47821467  0.46552037  0.43830951    -0.71500
V107        V  0.52431316  0.55083793  0.41678595     1.35200
V108        V  0.48031248  0.46788797  0.41650918     1.35200
C109        C  0.50177654  0.50836721  0.44587184     0.78000
C110        C  0.50249255  0.51049853  0.38740428     0.78000
C111        C  0.41647537  0.51274911  0.41695030     0.77900
C112        C  0.58816134  0.50587452  0.41639846     0.77900
O113        O  0.96371089  0.98394602  0.06154599    -0.71300
O114        O  0.96167983  0.98172884  0.10523965    -0.71500
O115        O  0.96395608  0.04859741  0.08354675    -0.71300
O116        O  0.96116867  0.91637675  0.08324006    -0.71400
O117        O  0.04749481  0.95819409  0.08442377    -0.71300
O118        O  0.05035727  0.09023941  0.08304078    -0.71300
O119        O  0.04809527  0.02595281  0.10553075    -0.71300
O120        O  0.04996602  0.02223229  0.06192792    -0.71500
V121        V  0.96427004  0.98338284  0.08340024     1.35200
V122        V  0.04728728  0.02337235  0.08372597     1.35200
C123        C  0.00722764  0.00316671  0.05432230     0.78000
C124        C  0.00463389  0.00408625  0.11280405     0.78000
C125        C  0.00763387  0.09186540  0.08319349     0.77900
C126        C  0.00391068  0.91485508  0.08390822     0.77900
O127        O  0.05221614  0.52260293  0.06147041    -0.71300
O128        O  0.05286494  0.52954162  0.10514167    -0.71500
O129        O  0.05184394  0.46054380  0.08434091    -0.71300
O130        O  0.05300061  0.59195855  0.08233825    -0.69000
O131        O  0.96665930  0.54943046  0.08345604    -0.71300
O132        O  0.96547000  0.41826701  0.08343391    -0.71300
O133        O  0.96647825  0.48422162  0.10528329    -0.71300
O134        O  0.96594199  0.48404227  0.06162950    -0.71500
V135        V  0.05086007  0.52542848  0.08332694     1.35200
V136        V  0.96783760  0.48475945  0.08344440     1.35200
C137        C  0.00884979  0.50269436  0.05412904     0.78000
C138        C  0.00980469  0.50748421  0.11263565     0.78000
C139        C  0.00834442  0.41703700  0.08400967     0.77900
C140        C  0.00993205  0.59296716  0.08278046     0.77900
O141        O  0.53513298  0.01473038  0.06156935    -0.71300
O142        O  0.53619286  0.01416951  0.10508824    -0.71500
O143        O  0.53451522  0.94849991  0.08315538    -0.71300
O144        O  0.53636212  0.08036117  0.08356217    -0.71400
O145        O  0.44995020  0.03784829  0.08418810    -0.71300
O146        O  0.44810271  0.90636638  0.08268673    -0.71300
O147        O  0.44974469  0.97037330  0.10526264    -0.71300
O148        O  0.44874095  0.97468483  0.06169729    -0.71500
V149        V  0.53388113  0.01361878  0.08333765     1.35200
V150        V  0.45081589  0.97306131  0.08346472     1.35200
C151        C  0.49184982  0.99546198  0.05425396     0.78000
C152        C  0.49320222  0.99218201  0.11256916     0.78000
C153        C  0.49095487  0.90502740  0.08286547     0.77900
C154        C  0.49332695  0.08139978  0.08392274     0.77900
O155        O  0.45386724  0.47705314  0.06091542    -0.71300
O156        O  0.45234365  0.46998918  0.10451796    -0.71500
O157        O  0.45249721  0.53840721  0.08371876    -0.71300
O158        O  0.45366005  0.40825737  0.08163132    -0.71400
O159        O  0.53996971  0.45176778  0.08299839    -0.71300
O160        O  0.53889256  0.58197361  0.08300229    -0.71300
O161        O  0.53867945  0.51654490  0.10477521    -0.71300
O162        O  0.54023004  0.51650521  0.06116217    -0.71500
V163        V  0.45473686  0.47420616  0.08270411     1.35200
V164        V  0.53777107  0.51595134  0.08297079     1.35200
C165        C  0.49730976  0.49714843  0.05364832     0.78000
C166        C  0.49531804  0.49261767  0.11206284     0.78000
C167        C  0.49553390  0.58233828  0.08360479     0.77900
C168        C  0.49703188  0.40791322  0.08210730     0.77900
O169        O  0.02887363  0.98106320  0.93857296    -0.71300
O170        O  0.02693041  0.97761862  0.89491208    -0.71500
O171        O  0.09250170  0.04472222  0.91627807    -0.71300
O172        O  0.96269125  0.91320429  0.91705355    -0.71400
O173        O  0.91861000  0.95549049  0.91600890    -0.71300
O174        O  0.04851386  0.08715946  0.91694570    -0.71300
O175        O  0.98521498  0.02234639  0.89472997    -0.71300
O176        O  0.98147150  0.01998105  0.93832258    -0.71500
V177        V  0.02683203  0.97989617  0.91672056     1.35200
V178        V  0.98434132  0.02046067  0.91651863     1.35200
C179        C  0.00507430  0.00071455  0.94586266     0.78000
C180        C  0.00633792  0.00005979  0.88741710     0.78000
C181        C  0.09259338  0.08825641  0.91650118     0.77900
C182        C  0.91856565  0.91197674  0.91642413     0.77900
O183        O  0.96905952  0.51827364  0.93853874    -0.71300
O184        O  0.97186390  0.52380428  0.89481765    -0.71500
O185        O  0.90386604  0.45728644  0.91599784    -0.71300
O186        O  0.03714971  0.58521820  0.91731080    -0.71400
O187        O  0.07824336  0.54007387  0.91570279    -0.71300
O188        O  0.94489672  0.41194254  0.91671718    -0.71300
O189        O  0.00930414  0.47506996  0.89437370    -0.71300
O190        O  0.01425880  0.47707155  0.93799668    -0.71500
V191        V  0.97132717  0.52035001  0.91666087     1.35200
V192        V  0.01078209  0.47682204  0.91620116     1.35200
C193        C  0.99205045  0.49747310  0.94569025     0.78000
C194        C  0.99052994  0.49977713  0.88716540     0.78000
C195        C  0.90177030  0.41280498  0.91635821     0.77900
C196        C  0.08030065  0.58450544  0.91652434     0.77900
O197        O  0.46914228  0.01549973  0.93870876    -0.71300
O198        O  0.47257596  0.01701384  0.89515300    -0.71500
O199        O  0.40711696  0.94967496  0.91653325    -0.71300
O200        O  0.53506379  0.08318526  0.91731232    -0.71400
O201        O  0.58066706  0.04240275  0.91662571    -0.71300
O202        O  0.45279241  0.90906898  0.91783794    -0.71300
O203        O  0.51538003  0.97336132  0.89540462    -0.71300
O204        O  0.51878918  0.97897847  0.93898575    -0.71500
V205        V  0.47185942  0.01556904  0.91693148     1.35200
V206        V  0.51596366  0.97666376  0.91720950     1.35200
C207        C  0.49432124  0.99796417  0.94622263     0.78000
C208        C  0.49399274  0.99493148  0.88787279     0.78000
C209        C  0.40815258  0.90672109  0.91715783     0.77900
C210        C  0.57967444  0.08539550  0.91699972     0.77900
O211        O  0.48156703  0.52291036  0.93829670    -0.71300
O212        O  0.48114386  0.52492563  0.89479084    -0.71500
O213        O  0.41596028  0.45897888  0.91642264    -0.71300
O214        O  0.54717234  0.58917787  0.91665428    -0.71400
O215        O  0.59004580  0.54569525  0.91546275    -0.71300
O216        O  0.45880963  0.41537566  0.91674002    -0.71300
O217        O  0.52167827  0.47905440  0.89431842    -0.71300
O218        O  0.52725082  0.48216981  0.93790092    -0.71500
V219        V  0.48235529  0.52319583  0.91653089     1.35200
V220        V  0.52360745  0.48137759  0.91611609     1.35200
C221        C  0.50479208  0.50257081  0.94548883     0.78000
C222        C  0.50076330  0.50184304  0.88716742     0.78000
C223        C  0.41509445  0.41505911  0.91664963     0.77900
C224        C  0.59090357  0.58960649  0.91598767     0.77900
O225        O  0.01869362  0.03712657  0.56214128    -0.71300
O226        O  0.00838894  0.03332036  0.60571414    -0.71500
O227        O  0.07860367  0.03451934  0.58527535    -0.71300
O228        O  0.94870839  0.03603338  0.58266397    -0.71400
O229        O  0.90505001  0.94977730  0.58398347    -0.71300
O230        O  0.03516346  0.94855217  0.58277957    -0.71300
O231        O  0.97149262  0.94720955  0.60510739    -0.71300
O232        O  0.96919991  0.95108179  0.56160393    -0.71500
V233        V  0.01283286  0.03368331  0.58393623     1.35200
V234        V  0.97096639  0.95078230  0.58336074     1.35200
C235        C  0.99463184  0.99456718  0.55446464     0.78000
C236        C  0.98957052  0.98963467  0.61279134     0.78000
C237        C  0.07897689  0.99128575  0.58420334     0.77900
C238        C  0.90474419  0.99310864  0.58329875     0.77900
O239        O  0.98385765  0.46015024  0.56102142    -0.71300
O240        O  0.98665717  0.45581644  0.60455835    -0.71500
O241        O  0.91803336  0.45524541  0.58359320    -0.71300
O242        O  0.05184328  0.46100457  0.58200920    -0.71400
O243        O  0.09214570  0.54701883  0.58419297    -0.71300
O244        O  0.95900576  0.54155633  0.58294040    -0.71300
O245        O  0.02194121  0.54175325  0.60529601    -0.71300
O246        O  0.02840035  0.54650193  0.56182548    -0.71500
V247        V  0.98580106  0.45963754  0.58280596     1.35200
V248        V  0.02463381  0.54252715  0.58354931     1.35200
C249        C  0.00653820  0.50412113  0.55403761     0.78000
C250        C  0.00383124  0.49805690  0.61229979     0.78000
C251        C  0.91595248  0.49772990  0.58336382     0.77900
C252        C  0.09467798  0.50498077  0.58304062     0.77900
O253        O  0.47678174  0.95562842  0.56161713    -0.71300
O254        O  0.47115680  0.95407848  0.60522508    -0.71500
O255        O  0.40773422  0.95365132  0.58257893    -0.71300
O256        O  0.53967982  0.95604615  0.58423699    -0.71400
O257        O  0.58178082  0.04241512  0.58400558    -0.71300
O258        O  0.44983386  0.03999782  0.58321830    -0.71300
O259        O  0.51396208  0.04045757  0.60540384    -0.71300
O260        O  0.51732137  0.04195297  0.56177463    -0.71500
V261        V  0.47460342  0.95652673  0.58340402     1.35200
V262        V  0.51492070  0.03952265  0.58359901     1.35200
C263        C  0.49791735  0.99894514  0.55428917     0.78000
C264        C  0.49193057  0.99710810  0.61272727     0.78000
C265        C  0.40639801  0.99648748  0.58277187     0.77900
C266        C  0.58311396  0.99958874  0.58433278     0.77900
O267        O  0.53118601  0.54626619  0.56195261    -0.71300
O268        O  0.52415108  0.54204770  0.60548073    -0.71500
O269        O  0.59186497  0.54159356  0.58440304    -0.71300
O270        O  0.46341141  0.54648827  0.58301271    -0.71400
O271        O  0.41849340  0.46017762  0.58382461    -0.71300
O272        O  0.54663610  0.45557975  0.58216179    -0.71300
O273        O  0.48437619  0.45576317  0.60482624    -0.71300
O274        O  0.48107113  0.46030939  0.56120964    -0.71500
V275        V  0.52685860  0.54248343  0.58370888     1.35200
V276        V  0.48345529  0.45959426  0.58302051     1.35200
C277        C  0.50642565  0.50405181  0.55417567     0.78000
C278        C  0.50398844  0.49829149  0.61255317     0.78000
C279        C  0.59104629  0.49777150  0.58325494     0.77900
C280        C  0.41902686  0.50393068  0.58336615     0.77900
O281        O  0.02892509  0.98360785  0.77190617    -0.71300
O282        O  0.02913893  0.98176377  0.72826780    -0.71500
O283        O  0.09436615  0.04863766  0.75016582    -0.71300
O284        O  0.96387949  0.91706715  0.75015199    -0.71400
O285        O  0.92057302  0.96019653  0.74970281    -0.71300
O286        O  0.05055694  0.09128144  0.75000754    -0.71300
O287        O  0.98648419  0.02557024  0.72810162    -0.71300
O288        O  0.98465483  0.02579207  0.77163112    -0.71500
V289        V  0.02833074  0.98365500  0.75010894     1.35200
V290        V  0.98643774  0.02484593  0.74985326     1.35200
C291        C  0.00658527  0.00480267  0.77916594     0.78000
C292        C  0.00743974  0.00312546  0.72078540     0.78000
C293        C  0.09454991  0.09229215  0.75025845     0.77900
C294        C  0.91999394  0.91640955  0.74990831     0.77900
O295        O  0.97351191  0.52331796  0.72768647    -0.71300
O296        O  0.97809680  0.52768166  0.77133305    -0.71500
O297        O  0.04130072  0.59055175  0.74875475    -0.71300
O298        O  0.90997124  0.46017687  0.75019220    -0.71400
O299        O  0.95302977  0.41679336  0.75054486    -0.71300
O300        O  0.08399631  0.54681923  0.74823964    -0.71300
O301        O  0.02212803  0.48527356  0.77120781    -0.71300
O302        O  0.01434109  0.47771930  0.72768274    -0.71500
V303        V  0.97651717  0.52458491  0.74949506     1.35200
V304        V  0.01759311  0.48258698  0.74943002     1.35200
C305        C  0.99272627  0.49931113  0.72029826     0.78000
C306        C  0.00102950  0.50728369  0.77868854     0.78000
C307        C  0.08495993  0.59081548  0.74822911     0.77900
C308        C  0.90926339  0.41628901  0.75053345     0.77900
O309        O  0.52483500  0.97739360  0.77200589    -0.71300
O310        O  0.52098923  0.97502866  0.72836295    -0.71500
O311        O  0.58910369  0.04195895  0.74977516    -0.71300
O312        O  0.45769213  0.91157399  0.75061704    -0.71400
O313        O  0.41511222  0.95534974  0.74945801    -0.71300
O314        O  0.54622073  0.08533345  0.75144145    -0.71300
O315        O  0.48358361  0.02383374  0.72860553    -0.71300
O316        O  0.47817121  0.01709296  0.77222453    -0.71500
V317        V  0.52249317  0.97745068  0.75019018     1.35200
V318        V  0.48158251  0.01955949  0.75042329     1.35200
C319        C  0.50102068  0.99652162  0.77952897     0.78000
C320        C  0.50183572  0.99923370  0.72107646     0.78000
C321        C  0.58993694  0.08585245  0.75073079     0.77900
C322        C  0.41407667  0.91134460  0.74996254     0.77900
O323        O  0.52179844  0.48068840  0.72827150    -0.71300
O324        O  0.52756583  0.48750721  0.77172004    -0.71500
O325        O  0.45879402  0.42020988  0.75107391    -0.71300
O326        O  0.59117032  0.54871115  0.74906934    -0.71400
O327        O  0.55005445  0.59388688  0.75044675    -0.71300
O328        O  0.41726596  0.46490162  0.74932395    -0.71300
O329        O  0.48175275  0.52812592  0.77168710    -0.71300
O330        O  0.48589457  0.53085892  0.72806239    -0.71500
V331        V  0.52410645  0.48523384  0.75001809     1.35200
V332        V  0.48447350  0.52860078  0.74987054     1.35200
C333        C  0.50360422  0.50528951  0.72077294     0.78000
C334        C  0.50459196  0.50776501  0.77909316     0.78000
C335        C  0.41554364  0.42063196  0.75037361     0.77900
C336        C  0.59320428  0.59317441  0.74974484     0.77900
C337        C  0.80412524  0.28120519  0.75017080     0.20800
C338        C  0.78121286  0.22574227  0.74951019    -0.39000
C339        C  0.72554190  0.19660956  0.75028692     0.19800
C340        C  0.69512479  0.22096772  0.75160470     0.22500
C341        C  0.71803155  0.27644720  0.75221337    -0.39500
C342        C  0.77371001  0.30558176  0.75143956     0.21300
N343        N  0.85609444  0.31759212  0.74974737    -0.32800
C344        C  0.85887962  0.36549103  0.75073541    -0.10400
C345        C  0.80828528  0.35970707  0.75176464    -0.29200
N346        N  0.64315370  0.18455067  0.75204170    -0.45800
C347        C  0.64037294  0.13665900  0.75096078    -0.05100
C348        C  0.69097432  0.14249283  0.74987842    -0.22400
H349        H  0.80499580  0.20670034  0.74848150     0.19400
H350        H  0.69424629  0.29549496  0.75321209     0.18200
H351        H  0.79822947  0.39082455  0.75266950     0.14500
H352        H  0.70103562  0.11141643  0.74882257     0.14300
H353        H  0.88778642  0.31028889  0.74881130     0.32500
H354        H  0.61144979  0.19184558  0.75291962     0.35200
C355        C  0.21999791  0.69649988  0.74838299     0.20800
C356        C  0.27554240  0.71992827  0.74904405    -0.39000
C357        C  0.30405329  0.77565258  0.74934512     0.19800
C358        C  0.27913115  0.80571418  0.74901335     0.22500
C359        C  0.22358846  0.78228556  0.74839970    -0.39500
C360        C  0.19507362  0.72656110  0.74809804     0.21300
N361        N  0.18398750  0.64436075  0.74818394    -0.32800
C362        C  0.13579658  0.64119845  0.74784454    -0.10400
C363        C  0.14106567  0.69164090  0.74773314    -0.29200
N364        N  0.31511703  0.85785142  0.74927446    -0.45800
C365        C  0.36327547  0.86098936  0.74976174    -0.05100
C366        C  0.35803527  0.81056453  0.74986298    -0.22400
H367        H  0.29510215  0.69650302  0.74931324     0.19400
H368        H  0.20402578  0.80571087  0.74818855     0.18200
H369        H  0.10961859  0.70139035  0.74763582     0.14500
H370        H  0.38948082  0.80082513  0.75015525     0.14300
H371        H  0.19168757  0.61286247  0.74850478     0.32500
H372        H  0.30741577  0.88935003  0.74905716     0.35200
C373        C  0.81180722  0.78246008  0.74951315     0.20800
C374        C  0.78658030  0.72674650  0.74910607    -0.39000
C375        C  0.73076233  0.69985676  0.74943120     0.19800
C376        C  0.70231266  0.72643097  0.75012648     0.22500
C377        C  0.72750172  0.78205228  0.75050465    -0.39500
C378        C  0.78321284  0.80888840  0.75015697     0.21300
N379        N  0.86438326  0.81726835  0.74935992    -0.32800
C380        C  0.86908345  0.86610605  0.74987941    -0.10400
C381        C  0.81936229  0.86245376  0.75037372    -0.29200
N382        N  0.64976553  0.69188529  0.75033763    -0.45800
C383        C  0.64466148  0.64292531  0.74974572    -0.05100
C384        C  0.69428225  0.64623872  0.74917744    -0.22400
H385        H  0.80873396  0.70588871  0.74858294     0.19400
H386        H  0.70535155  0.80291521  0.75103032     0.18200
H387        H  0.81085481  0.89471257  0.75085864     0.14500
H388        H  0.70249778  0.61379142  0.74865445     0.14300
H389        H  0.89509661  0.80839630  0.74890868     0.32500
H390        H  0.61925379  0.70104693  0.75083574     0.35200
C391        C  0.19988941  0.22739883  0.75023306     0.20800
C392        C  0.22355905  0.28279781  0.74882122    -0.39000
C393        C  0.27916780  0.31149088  0.75012562     0.19800
C394        C  0.30874398  0.28679351  0.75270849     0.22500
C395        C  0.28508894  0.23149776  0.75417214    -0.39500
C396        C  0.22960359  0.20282328  0.75276456     0.21300
N397        N  0.14796199  0.19115253  0.74909190    -0.32800
C398        C  0.14472735  0.14321960  0.75079011    -0.10400
C399        C  0.19479372  0.14886013  0.75313978    -0.29200
N400        N  0.36085527  0.32260408  0.75317211    -0.45800
C401        C  0.36462088  0.37048513  0.75086043    -0.05100
C402        C  0.31450562  0.36528918  0.74895779    -0.22400
H403        H  0.20045867  0.30205139  0.74668562     0.19400
H404        H  0.30826867  0.21217260  0.75604285     0.18200
H405        H  0.20439829  0.11768519  0.75482347     0.14500
H406        H  0.30528151  0.39651987  0.74683873     0.14300
H407        H  0.11670597  0.19851143  0.74711211     0.32500
H408        H  0.39202411  0.31489741  0.75485489     0.35200
C409        C  0.50317945  0.52206850  0.65267275     0.20800
C410        C  0.50257432  0.54959192  0.66582648    -0.39000
C411        C  0.50231196  0.52599343  0.67985624     0.19800
C412        C  0.50350415  0.47899641  0.68073683     0.22500
C413        C  0.50322059  0.45092937  0.66755232    -0.39500
C414        C  0.50258805  0.47415213  0.65348011     0.21300
N415        N  0.50410804  0.53664655  0.63801589    -0.32800
C416        C  0.50318658  0.49738379  0.62939405    -0.10400
C417        C  0.50197343  0.45748006  0.63859108    -0.29200
N418        N  0.50456686  0.46578271  0.69546331    -0.45800
C419        C  0.50317444  0.50424705  0.70394487    -0.05100
C420        C  0.50152478  0.54234848  0.69464130    -0.22400
H421        H  0.50240326  0.58672022  0.66517886     0.19400
H422        H  0.50352528  0.41386800  0.66820343     0.18200
H423        H  0.50160720  0.42171552  0.63488226     0.14500
H424        H  0.50064193  0.57759922  0.69822481     0.14300
H425        H  0.50479197  0.57096098  0.63409827     0.32500
H426        H  0.50560456  0.43246086  0.69950375     0.35200
C427        C  0.50147111  0.02235915  0.68082765     0.20800
C428        C  0.50710620  0.05164360  0.66746440    -0.39000
C429        C  0.49893843  0.02408383  0.65358248     0.19800
C430        C  0.48525474  0.97110084  0.65303097     0.22500
C431        C  0.48031432  0.94196546  0.66640136    -0.39500
C432        C  0.48950123  0.96986125  0.68029220     0.21300
N433        N  0.50718166  0.03948277  0.69542619    -0.32800
C434        C  0.49989279  0.99794138  0.70422342    -0.10400
C435        C  0.48900375  0.95387078  0.69522747    -0.29200
N436        N  0.47975626  0.95422423  0.63839798    -0.45800
C437        C  0.49087922  0.99706581  0.62960866    -0.05100
C438        C  0.50299261  0.04131684  0.63866158    -0.22400
H439        H  0.51749094  0.09297581  0.66784223     0.19400
H440        H  0.47060843  0.90083027  0.66601160     0.18200
H441        H  0.48086868  0.91514521  0.69912441     0.14500
H442        H  0.51371695  0.08086382  0.63482496     0.14300
H443        H  0.51608083  0.07721239  0.69918107     0.32500
H444        H  0.47035314  0.91635429  0.63461631     0.35200
C445        C  0.72424283  0.52227355  0.58316694     0.20800
C446        C  0.77977884  0.55309444  0.58292035    -0.39000
C447        C  0.80704826  0.52473468  0.58339240     0.19800
C448        C  0.78116833  0.46979144  0.58410905     0.22500
C449        C  0.72541155  0.43883201  0.58435296    -0.39500
C450        C  0.69802207  0.46729304  0.58380834     0.21300
N451        N  0.68948534  0.53994662  0.58284081    -0.32800
C452        C  0.64068907  0.49598400  0.58323624    -0.10400
C453        C  0.64425832  0.44982104  0.58379945    -0.29200
N454        N  0.81653073  0.45265633  0.58427740    -0.45800
C455        C  0.86505915  0.49716436  0.58361118    -0.05100
C456        C  0.86068171  0.54276174  0.58309198    -0.22400
H457        H  0.80027738  0.59605073  0.58234803     0.19400
H458        H  0.70491304  0.39586703  0.58484909     0.18200
H459        H  0.61193359  0.40912116  0.58426684     0.14500
H460        H  0.89254588  0.58365113  0.58246261     0.14300
H461        H  0.69841621  0.57952052  0.58238931     0.32500
H462        H  0.80821916  0.41327391  0.58470537     0.35200
C463        C  0.20336919  0.48057284  0.58193439     0.20800
C464        C  0.22792801  0.44965198  0.58116681    -0.39000
C465        C  0.28347232  0.47768176  0.58201643     0.19800
C466        C  0.31261127  0.53246531  0.58342484     0.22500
C467        C  0.28797311  0.56354686  0.58419414    -0.39500
C468        C  0.23216070  0.53536127  0.58342085     0.21300
N469        N  0.15101085  0.46308278  0.58157475    -0.32800
C470        C  0.14617820  0.50691099  0.58286910    -0.10400
C471        C  0.19590084  0.55287439  0.58403065    -0.29200
N472        N  0.36496600  0.54923537  0.58405166    -0.45800
C473        C  0.36880098  0.50464215  0.58311444    -0.05100
C474        C  0.31886780  0.45935467  0.58183081    -0.22400
H475        H  0.20537950  0.40680753  0.58009783     0.19400
H476        H  0.31050415  0.60635020  0.58539175     0.18200
H477        H  0.20429199  0.59344350  0.58522236     0.14500
H478        H  0.30973186  0.41848171  0.58088595     0.14300
H479        H  0.12037064  0.42363618  0.58057966     0.32500
H480        H  0.39607312  0.58842969  0.58513977     0.35200
C481        C  0.99454899  0.51716663  0.65226290     0.20800
C482        C  0.98727308  0.54084930  0.66535986    -0.39000
C483        C  0.98810435  0.51774901  0.67937697     0.19800
C484        C  0.99640617  0.47483766  0.68029743     0.22500
C485        C  0.00281552  0.45053176  0.66715892    -0.39500
C486        C  0.00112230  0.47316019  0.65309915     0.21300
N487        N  0.99573264  0.53202888  0.63763194    -0.32800
C488        C  0.00202318  0.49664175  0.62907667    -0.10400
C489        C  0.00540201  0.45914693  0.63825718    -0.29200
N490        N  0.99828779  0.46220652  0.69502707    -0.45800
C491        C  0.99065933  0.49706897  0.70347787    -0.05100
C492        C  0.98362270  0.53196891  0.69414074    -0.22400
H493        H  0.98176337  0.57500310  0.66468789     0.19400
H494        H  0.00893304  0.41675350  0.66783858     0.18200
H495        H  0.01066937  0.42646565  0.63456893     0.14500
H496        H  0.97802240  0.56456638  0.69769555     0.14300
H497        H  0.99148896  0.56364895  0.63367490     0.32500
H498        H  0.00499739  0.43223013  0.69908807     0.35200
C499        C  0.79889186  0.02224997  0.58356584     0.20800
C500        C  0.77516140  0.05414909  0.58333395    -0.39000
C501        C  0.71945872  0.02681558  0.58419598     0.19800
C502        C  0.68979894  0.97196226  0.58523715     0.22500
C503        C  0.71351149  0.94012438  0.58551277    -0.39500
C504        C  0.76912545  0.96741046  0.58461243     0.21300
N505        N  0.85102965  0.03843005  0.58283126    -0.32800
C506        C  0.85436673  0.99354540  0.58342071    -0.10400
C507        C  0.80413505  0.94845959  0.58451999    -0.29200
N508        N  0.63761760  0.95549790  0.58559009    -0.45800
C509        C  0.63393680  0.00011130  0.58473841    -0.05100
C510        C  0.68413274  0.04546873  0.58391314    -0.22400
H511        H  0.79831412  0.09700568  0.58244769     0.19400
H512        H  0.69033121  0.89723489  0.58626315     0.18200
H513        H  0.79459123  0.90742455  0.58524613     0.14500
H514        H  0.69342279  0.08638431  0.58298946     0.14300
H515        H  0.88240770  0.07756951  0.58204983     0.32500
H516        H  0.60635950  0.91622907  0.58619421     0.35200
C517        C  0.27149434  0.96764680  0.58303846     0.20800
C518        C  0.21585576  0.93595550  0.58314056    -0.39000
C519        C  0.18776144  0.96360904  0.58393068     0.19800
C520        C  0.21318540  0.01855011  0.58463477     0.22500
C521        C  0.26873036  0.05017456  0.58453605    -0.39500
C522        C  0.29677443  0.02258118  0.58368385     0.21300
N523        N  0.30727882  0.95118638  0.58242272    -0.32800
C524        C  0.35557334  0.99601774  0.58269560    -0.10400
C525        C  0.35063986  0.04130136  0.58343524    -0.29200
N526        N  0.17766766  0.03529528  0.58506231    -0.45800
C527        C  0.12927016  0.99075001  0.58452305    -0.05100
C528        C  0.13385497  0.94519937  0.58387628    -0.22400
H529        H  0.19593991  0.89301675  0.58256998     0.19400
H530        H  0.28864654  0.09312424  0.58502222     0.18200
H531        H  0.38223821  0.08234002  0.58392544     0.14500
H532        H  0.10207518  0.90427345  0.58322768     0.14300
H533        H  0.29937138  0.91192390  0.58199413     0.32500
H534        H  0.18585119  0.07463937  0.58544494     0.35200
C535        C  0.98601231  0.00968383  0.65298686     0.20800
C536        C  0.98064047  0.03347570  0.66634149    -0.39000
C537        C  0.99170642  0.01613450  0.68011647     0.19800
C538        C  0.00743777  0.97831627  0.68060142     0.22500
C539        C  0.01190916  0.95374255  0.66722892    -0.39500
C540        C  0.00021915  0.97069997  0.65341959     0.21300
N541        N  0.97985891  0.02095670  0.63845070    -0.32800
C542        C  0.98939195  0.98834873  0.62958219    -0.10400
C543        C  0.00174826  0.95603182  0.63845037    -0.29200
N544        N  0.01642113  0.96953777  0.69517082    -0.45800
C545        C  0.00563679  0.00161832  0.70394567    -0.05100
C546        C  0.99008003  0.03115828  0.69497519    -0.22400
H547        H  0.96918552  0.06366855  0.66602122     0.19400
H548        H  0.02388981  0.92394021  0.66754048     0.18200
H549        H  0.01240046  0.92728229  0.63444363     0.14500
H550        H  0.97885642  0.05963938  0.69883298     0.14300
H551        H  0.97016704  0.04928375  0.63476798     0.32500
H552        H  0.02809128  0.94275338  0.69892750     0.35200
C553        C  0.51193336  0.48810776  0.84688908     0.20800
C554        C  0.52712206  0.47265385  0.83345131    -0.39000
C555        C  0.51524278  0.48948135  0.81970446     0.19800
C556        C  0.48994475  0.51920562  0.81933466     0.22500
C557        C  0.47477751  0.53471186  0.83278577    -0.39500
C558        C  0.48684527  0.51803594  0.84655092     0.21300
N559        N  0.51959297  0.47796420  0.86141011    -0.32800
C560        C  0.49939959  0.50181012  0.87035395    -0.10400
C561        C  0.47846865  0.52704323  0.86152880    -0.29200
N562        N  0.48300980  0.52989801  0.80478828    -0.45800
C563        C  0.50423484  0.50686784  0.79590551    -0.05100
C564        C  0.52475645  0.48139331  0.80477381    -0.22400
H565        H  0.54696247  0.44948979  0.83368233     0.19400
H566        H  0.45525606  0.55817527  0.83255662     0.18200
H567        H  0.46021329  0.54947398  0.86554412     0.14500
H568        H  0.54371789  0.45956808  0.80080935     0.14300
H569        H  0.53793668  0.45672468  0.86500878     0.32500
H570        H  0.46495777  0.55135304  0.80113888     0.35200
C571        C  0.50735164  0.97955692  0.84769688     0.20800
C572        C  0.52261314  0.96308737  0.83442398    -0.39000
C573        C  0.51030908  0.97842058  0.82043599     0.19800
C574        C  0.48461018  0.00771178  0.81974926     0.22500
C575        C  0.46932048  0.02410634  0.83300635    -0.39500
C576        C  0.48173355  0.00891657  0.84697199     0.21300
N577        N  0.51495394  0.97066085  0.86237366    -0.32800
C578        C  0.49398756  0.99454671  0.87101132    -0.10400
C579        C  0.47287798  0.01877999  0.86182490    -0.29200
N580        N  0.47788236  0.01763985  0.80511180    -0.45800
C581        C  0.49965654  0.99474194  0.79640058    -0.05100
C582        C  0.52021755  0.96978371  0.80553272    -0.22400
H583        H  0.54286029  0.94034535  0.83494993     0.19400
H584        H  0.44946292  0.04722220  0.83248507     0.18200
H585        H  0.45385494  0.04083251  0.86552632     0.14500
H586        H  0.53990028  0.94843274  0.80177141     0.14300
H587        H  0.53336585  0.94980382  0.86627175     0.32500
H588        H  0.45992078  0.03900035  0.80128433     0.35200
C589        C  0.79419741  0.27921127  0.91732206     0.20800
C590        C  0.77039621  0.22382446  0.91808183    -0.39000
C591        C  0.71478599  0.19570871  0.91767363     0.19800
C592        C  0.68492176  0.22073330  0.91665108     0.22500
C593        C  0.70880018  0.27636437  0.91590199    -0.39500
C594        C  0.76467797  0.30460605  0.91626598     0.21300
N595        N  0.84642757  0.31454284  0.91742716    -0.32800
C596        C  0.85050989  0.36294128  0.91644780    -0.10400
C597        C  0.80036440  0.35851973  0.91569791    -0.29200
N598        N  0.63268210  0.18469163  0.91635983    -0.45800
C599        C  0.62960234  0.13658243  0.91713178    -0.05100
C600        C  0.67995043  0.14189212  0.91798572    -0.22400
H601        H  0.79353972  0.20403959  0.91885603     0.19400
H602        H  0.68565529  0.29612818  0.91504752     0.18200
H603        H  0.79132233  0.39035461  0.91486646     0.14500
H604        H  0.68972079  0.11053449  0.91868493     0.14300
H605        H  0.87746446  0.30621684  0.91815216     0.32500
H606        H  0.60115095  0.19228265  0.91557169     0.35200
C607        C  0.21584011  0.68982326  0.91655979     0.20800
C608        C  0.27159174  0.71370145  0.91679253    -0.39000
C609        C  0.29984027  0.76958051  0.91678112     0.19800
C610        C  0.27433965  0.79910051  0.91647702     0.22500
C611        C  0.21883652  0.77530049  0.91624571    -0.39500
C612        C  0.19071820  0.71969290  0.91634478     0.21300
N613        N  0.17977551  0.63758320  0.91662803    -0.32800
C614        C  0.13154537  0.63449396  0.91651053    -0.10400
C615        C  0.13682594  0.68485886  0.91634150    -0.29200
N616        N  0.30969574  0.85131791  0.91658042    -0.45800
C617        C  0.35823451  0.85541198  0.91699874    -0.05100
C618        C  0.35384893  0.80526450  0.91712768    -0.22400
H619        H  0.29144658  0.69055374  0.91703877     0.19400
H620        H  0.19896901  0.79844104  0.91608455     0.18200
H621        H  0.10540247  0.69464216  0.91621406     0.14500
H622        H  0.38576949  0.79621421  0.91742833     0.14300
H623        H  0.18744294  0.60604872  0.91680122     0.32500
H624        H  0.30128294  0.88233867  0.91641646     0.35200
C625        C  0.00634430  0.48859967  0.84683240     0.20800
C626        C  0.02286222  0.47364503  0.83350826    -0.39000
C627        C  0.01272583  0.49130477  0.81959766     0.19800
C628        C  0.98789893  0.52142274  0.81900167     0.22500
C629        C  0.97144502  0.53643463  0.83233127    -0.39500
C630        C  0.98168962  0.51887688  0.84624989     0.21300
N631        N  0.01192004  0.47734408  0.86144927    -0.32800
C632        C  0.99089729  0.50082489  0.87025212    -0.10400
C633        C  0.97146331  0.52696354  0.86118268    -0.29200
N634        N  0.98158824  0.53196759  0.80436761    -0.45800
C635        C  0.00242095  0.50826397  0.79558792    -0.05100
C636        C  0.02253106  0.48279346  0.80467582    -0.22400
H637        H  0.04206935  0.44990597  0.83393860     0.19400
H638        H  0.95198300  0.55993241  0.83189521     0.18200
H639        H  0.95297561  0.54938207  0.86501083     0.14500
H640        H  0.04062457  0.45999067  0.80086020     0.14300
H641        H  0.02953388  0.45560560  0.86521342     0.32500
H642        H  0.96334574  0.55309067  0.80058038     0.35200
C643        C  0.72574221  0.69589891  0.91559479     0.20800
C644        C  0.78140302  0.71979947  0.91542196    -0.39000
C645        C  0.80955181  0.77556776  0.91565544     0.19800
C646        C  0.78414101  0.80516896  0.91599418     0.22500
C647        C  0.72853960  0.78129008  0.91616658    -0.39500
C648        C  0.70042549  0.72558374  0.91596665     0.21300
N649        N  0.68999111  0.64365446  0.91552030    -0.32800
C650        C  0.64162288  0.64012530  0.91585933    -0.10400
C651        C  0.64650288  0.69037952  0.91614694    -0.29200
N652        N  0.81973070  0.85739394  0.91625518    -0.45800
C653        C  0.86818040  0.86114870  0.91613896    -0.05100
C654        C  0.86351649  0.81095838  0.91574108    -0.22400
H655        H  0.80130454  0.69669459  0.91518565     0.19400
H656        H  0.70863879  0.80439032  0.91648671     0.18200
H657        H  0.61485955  0.69983219  0.91647138     0.14500
H658        H  0.89528525  0.80167402  0.91558516     0.14300
H659        H  0.69798288  0.61233937  0.91529355     0.32500
H660        H  0.81156502  0.88858219  0.91657786     0.35200
C661        C  0.19888969  0.22284802  0.91653751     0.20800
C662        C  0.22294011  0.27840816  0.91720006    -0.39000
C663        C  0.27871466  0.30635962  0.91692869     0.19800
C664        C  0.30820857  0.28089033  0.91607363     0.22500
C665        C  0.28417468  0.22538980  0.91536869    -0.39500
C666        C  0.22846010  0.19746876  0.91564506     0.21300
N667        N  0.14661346  0.18722915  0.91684540    -0.32800
C668        C  0.14300727  0.13891068  0.91620273    -0.10400
C669        C  0.19317384  0.14366256  0.91538260    -0.29200
N670        N  0.36049586  0.31633330  0.91598875    -0.45800
C671        C  0.36433933  0.36471977  0.91673509    -0.05100
C672        C  0.31420430  0.36018302  0.91735308    -0.22400
H673        H  0.19995160  0.29837178  0.91791654     0.19400
H674        H  0.30716574  0.20541573  0.91471808     0.18200
H675        H  0.20252711  0.11198999  0.91482183     0.14500
H676        H  0.30502513  0.39196665  0.91796948     0.14300
H677        H  0.11535868  0.19525431  0.91758616     0.32500
H678        H  0.39164983  0.30813427  0.91535490     0.35200
C679        C  0.99251633  0.01417573  0.84725274     0.20800
C680        C  0.97590119  0.02928891  0.83400609    -0.39000
C681        C  0.99101933  0.01676207  0.82002488     0.19800
C682        C  0.02038051  0.99112941  0.81932380     0.22500
C683        C  0.03690221  0.97594864  0.83256259    -0.39500
C684        C  0.02179828  0.98846675  0.84653624     0.21300
N685        N  0.98338403  0.02162521  0.86190954    -0.32800
C686        C  0.00690883  0.00038355  0.87056484    -0.10400
C687        C  0.03130405  0.97932076  0.86140295    -0.29200
N688        N  0.02969084  0.98375955  0.80468502    -0.45800
C689        C  0.00610111  0.00484074  0.79600716    -0.05100
C690        C  0.98155429  0.02584558  0.80514051    -0.22400
H691        H  0.95298099  0.04935371  0.83454866     0.19400
H692        H  0.05982835  0.95589161  0.83201914     0.18200
H693        H  0.05304940  0.96001290  0.86512166     0.14500
H694        H  0.95971846  0.04502919  0.80139320     0.14300
H695        H  0.96238473  0.03990298  0.86578373     0.32500
H696        H  0.05072336  0.96548691  0.80083613     0.35200
C697        C  0.52097246  0.49533724  0.01353863     0.20800
C698        C  0.54564488  0.49043512  0.00027061    -0.39000
C699        C  0.52495615  0.49611707  0.98630469     0.19800
C700        C  0.48346684  0.50671076  0.98563781     0.22500
C701        C  0.45825618  0.51074929  0.99888612    -0.39500
C702        C  0.47833592  0.50417994  0.01283421     0.21300
N703        N  0.53348220  0.49214235  0.02820052    -0.32800
C704        C  0.49791782  0.49803525  0.03682950    -0.10400
C705        C  0.46266890  0.50527589  0.02769089    -0.29200
N706        N  0.47161982  0.51111844  0.97101335    -0.45800
C707        C  0.50524697  0.50245810  0.96231442    -0.05100
C708        C  0.53908741  0.49286617  0.97140790    -0.22400
H709        H  0.57844709  0.48272492  0.00078415     0.19400
H710        H  0.42532430  0.51826136  0.99836795     0.18200
H711        H  0.43061295  0.51147289  0.03143733     0.14500
H712        H  0.56988214  0.48479144  0.96762393     0.14300
H713        H  0.56386656  0.48576642  0.03210859     0.32500
H714        H  0.44191690  0.51864713  0.96717600     0.35200
C715        C  0.51775792  0.79779090  0.08450709     0.20800
C716        C  0.54919706  0.77375961  0.08565770    -0.39000
C717        C  0.52161103  0.71809255  0.08519540     0.19800
C718        C  0.46680712  0.68854288  0.08382655     0.22500
C719        C  0.43527320  0.71259270  0.08275584    -0.39500
C720        C  0.46295076  0.76836806  0.08311090     0.21300
N721        N  0.53459977  0.85005680  0.08441687    -0.32800
C722        C  0.49026550  0.85407028  0.08298864    -0.10400
C723        C  0.44472421  0.80396516  0.08213614    -0.29200
N724        N  0.45042827  0.63634711  0.08327899    -0.45800
C725        C  0.49517260  0.63275815  0.08418836    -0.05100
C726        C  0.54033071  0.68288644  0.08545842    -0.22400
H727        H  0.59207446  0.79675459  0.08662462     0.19400
H728        H  0.39246389  0.68961544  0.08155765     0.18200
H729        H  0.40388727  0.79487577  0.08101172     0.14500
H730        H  0.58134233  0.69229300  0.08625401     0.14300
H731        H  0.57386302  0.88112699  0.08535872     0.32500
H732        H  0.41131932  0.60513258  0.08209674     0.35200
C733        C  0.52120313  0.21587833  0.08368655     0.20800
C734        C  0.55257349  0.27145597  0.08419524    -0.39000
C735        C  0.52492929  0.29937681  0.08276625     0.19800
C736        C  0.47026467  0.27389273  0.08091118     0.22500
C737        C  0.43892570  0.21834411  0.08035975    -0.39500
C738        C  0.46652462  0.19043667  0.08187856     0.21300
N739        N  0.53781014  0.18032565  0.08481531    -0.32800
C740        C  0.49334012  0.13196787  0.08375664    -0.10400
C741        C  0.44809916  0.13662856  0.08196018    -0.29200
N742        N  0.45342012  0.30931711  0.08022760    -0.45800
C743        C  0.49764646  0.35766549  0.08171065    -0.05100
C744        C  0.54306633  0.35314631  0.08323711    -0.22400
H745        H  0.59527164  0.29145885  0.08571774     0.19400
H746        H  0.39615775  0.19832409  0.07900971     0.18200
H747        H  0.40733614  0.10491304  0.08069127     0.14500
H748        H  0.58368775  0.38486379  0.08478056     0.14300
H749        H  0.57695380  0.18843104  0.08614637     0.32500
H750        H  0.41417869  0.30108440  0.07905838     0.35200
C751        C  0.47022845  0.99698805  0.98633313     0.20800
C752        C  0.44056740  0.99093840  0.99964879    -0.39000
C753        C  0.46658579  0.99469973  0.01354330     0.19800
C754        C  0.51845210  0.00461011  0.01411895     0.22500
C755        C  0.54786002  0.00995819  0.00080820    -0.39500
C756        C  0.52152597  0.00527427  0.98691660     0.21300
N757        N  0.45433391  0.99436831  0.97172101    -0.32800
C758        C  0.49541646  0.99987538  0.96300458    -0.10400
C759        C  0.53801346  0.00671656  0.97202346    -0.29200
N760        N  0.53422253  0.00675019  0.02871497    -0.45800
C761        C  0.49180855  0.99733062  0.03745757    -0.05100
C762        C  0.44883719  0.98957334  0.02844187    -0.22400
H763        H  0.40011373  0.98341841  0.99921871     0.19400
H764        H  0.58803253  0.01668098  0.00123745     0.18200
H765        H  0.57585736  0.01208357  0.96818225     0.14500
H766        H  0.41001419  0.98144715  0.03228045     0.14300
H767        H  0.41746712  0.98794141  0.96790644     0.32500
H768        H  0.57118261  0.01333080  0.03249214     0.35200
C769        C  0.98054181  0.49987094  0.01411735     0.20800
C770        C  0.95199345  0.50034693  0.00117052    -0.39000
C771        C  0.97375310  0.49903455  0.98691413     0.19800
C772        C  0.01991749  0.49638167  0.98565868     0.22500
C773        C  0.04898371  0.49673050  0.99862675    -0.39500
C774        C  0.02769190  0.49905130  0.01291154     0.21300
N775        N  0.96797734  0.50082724  0.02890805    -0.32800
C776        C  0.00775784  0.50156376  0.03723341    -0.10400
C777        C  0.04599966  0.50073135  0.02768019    -0.29200
N778        N  0.03176678  0.49465649  0.97081533    -0.45800
C779        C  0.99343771  0.49722899  0.96258386    -0.05100
C780        C  0.95659635  0.50014052  0.97221547    -0.22400
H781        H  0.91560902  0.50188606  0.00213470     0.19400
H782        H  0.08555735  0.49554817  0.99765922     0.18200
H783        H  0.08181588  0.50063059  0.03108440     0.14500
H784        H  0.92184941  0.50242607  0.96890457     0.14300
H785        H  0.93467580  0.50161557  0.03310152     0.32500
H786        H  0.06443397  0.49284939  0.96652890     0.35200
C787        C  0.03161950  0.80818324  0.08347516     0.20800
C788        C  0.06351180  0.78452166  0.08292246    -0.39000
C789        C  0.03613303  0.72884581  0.08277339     0.19800
C790        C  0.98116028  0.69902368  0.08317555     0.22500
C791        C  0.94920535  0.72269939  0.08369719    -0.39500
C792        C  0.97662941  0.77845635  0.08380987     0.21300
N793        N  0.04810730  0.86035286  0.08362372    -0.32800
C794        C  0.00336764  0.86399218  0.08398061    -0.10400
C795        C  0.95790655  0.81374820  0.08412984    -0.29200
N796        N  0.96489863  0.64686384  0.08309447    -0.45800
C797        C  0.00983304  0.64350848  0.08264211    -0.05100
C798        C  0.05507981  0.69380459  0.08239649    -0.22400
H799        H  0.10649393  0.80777258  0.08263736     0.19400
H800        H  0.90622151  0.69944343  0.08398737     0.18200
H801        H  0.91683325  0.80437610  0.08434744     0.14500
H802        H  0.09621442  0.70338943  0.08213659     0.14300
H803        H  0.08740748  0.89159558  0.08335177     0.32500
H804        H  0.92566130  0.61547002  0.08343380     0.35200
C805        C  0.03430902  0.30911876  0.08410979     0.20800
C806        C  0.06525142  0.28437307  0.08416514    -0.39000
C807        C  0.03685118  0.22869422  0.08352799     0.19800
C808        C  0.98184434  0.19987594  0.08289706     0.22500
C809        C  0.95089938  0.22461736  0.08280142    -0.39500
C810        C  0.97930703  0.28029483  0.08343746     0.21300
N811        N  0.05171294  0.36151629  0.08456046    -0.32800
C812        C  0.00746252  0.36603066  0.08413876    -0.10400
C813        C  0.96153820  0.31626150  0.08346229    -0.29200
N814        N  0.96443461  0.14747829  0.08258507    -0.45800
C815        C  0.00868217  0.14294830  0.08302500    -0.05100
C816        C  0.05462289  0.19271459  0.08356878    -0.22400
H817        H  0.10824461  0.30680337  0.08469243     0.19400
H818        H  0.90790000  0.20218219  0.08230562     0.18200
H819        H  0.92072662  0.30763269  0.08292761     0.14500
H820        H  0.09543064  0.20133456  0.08409873     0.14300
H821        H  0.09123426  0.39230197  0.08500116     0.32500
H822        H  0.92490138  0.11669596  0.08220209     0.35200
C823        C  0.98441938  0.00316032  0.01400142     0.20800
C824        C  0.95740219  0.00317815  0.00063390    -0.39000
C825        C  0.98170926  0.00299984  0.98672401     0.19800
C826        C  0.02888045  0.00199894  0.98617409     0.22500
C827        C  0.05643134  0.00301340  0.99954516    -0.39500
C828        C  0.03251458  0.00399849  0.01346061     0.21300
N829        N  0.96913082  0.00235512  0.02861616    -0.32800
C830        C  0.00814538  0.00350077  0.03744193    -0.10400
C831        C  0.04855347  0.00490146  0.02842205    -0.29200
N832        N  0.04287963  0.00035452  0.97155021    -0.45800
C833        C  0.00482107  0.00124320  0.96274395    -0.05100
C834        C  0.96612191  0.00313200  0.97177837    -0.22400
H835        H  0.92010545  0.00312788  0.00103478     0.19400
H836        H  0.09361343  0.00283410  0.99914455     0.18200
H837        H  0.08428047  0.00550019  0.03229981     0.14500
H838        H  0.93103240  0.00384228  0.96791944     0.14300
H839        H  0.93454346  0.00151176  0.03236753     0.32500
H840        H  0.07656120  0.99942193  0.96777910     0.35200
C841        C  0.52120948  0.53299136  0.48620948     0.20800
C842        C  0.54503679  0.56196203  0.49964296    -0.39000
C843        C  0.52555853  0.53406080  0.51346208     0.19800
C844        C  0.48550473  0.48136452  0.51384542     0.22500
C845        C  0.46166422  0.45246276  0.50042876    -0.39500
C846        C  0.48119802  0.48028620  0.48662539     0.21300
N847        N  0.53312729  0.55003300  0.47163244    -0.32800
C848        C  0.50083780  0.50767630  0.46273799    -0.10400
C849        C  0.46775754  0.46352233  0.47166498    -0.29200
N850        N  0.47408266  0.46386774  0.52837823    -0.45800
C851        C  0.50681760  0.50579888  0.53732307    -0.05100
C852        C  0.53958555  0.55032040  0.52845520    -0.22400
H853        H  0.57646608  0.60309780  0.49935450     0.19400
H854        H  0.43048040  0.41122518  0.50071335     0.18200
H855        H  0.43826846  0.42433537  0.46772612     0.14500
H856        H  0.56943336  0.58927901  0.53244829     0.14300
H857        H  0.56205929  0.58779716  0.46795363     0.32500
H858        H  0.44539761  0.42592645  0.53199898     0.35200
C859        C  0.48999192  0.96968747  0.51424949     0.20800
C860        C  0.47752143  0.93725026  0.50119927    -0.39000
C861        C  0.48803095  0.96355006  0.48705659     0.19800
C862        C  0.50947736  0.01804234  0.48601142     0.22500
C863        C  0.52210039  0.05055884  0.49907486    -0.39500
C864        C  0.51148336  0.02419882  0.51323645     0.21300
N865        N  0.48277359  0.95406552  0.52897519    -0.32800
C866        C  0.49975677  0.99886751  0.53742852    -0.10400
C867        C  0.51814286  0.04354698  0.52803775    -0.29200
N868        N  0.51509816  0.03324595  0.47125137    -0.45800
C869        C  0.49699410  0.98810732  0.46285826    -0.05100
C870        C  0.47981837  0.94378220  0.47229895    -0.22400
H871        H  0.46046910  0.89461188  0.50200436     0.19400
H872        H  0.53859624  0.09312611  0.49826699     0.18200
H873        H  0.53367801  0.08443281  0.53155836     0.14500
H874        H  0.46335587  0.90271953  0.46883383     0.14300
H875        H  0.46696928  0.91526349  0.53302583     0.32500
H876        H  0.53003672  0.07187643  0.46714033     0.35200
C877        C  0.01534818  0.53463338  0.48632209     0.20800
C878        C  0.03030076  0.56476497  0.49987440    -0.39000
C879        C  0.01903914  0.53560501  0.51353228     0.19800
C880        C  0.99477925  0.48068045  0.51368051     0.22500
C881        C  0.98002722  0.45057492  0.50013624    -0.39500
C882        C  0.99120918  0.47972117  0.48649029     0.21300
N883        N  0.02160372  0.55278013  0.47184852    -0.32800
C884        C  0.00125011  0.50898538  0.46279499    -0.10400
C885        C  0.98193545  0.46274193  0.47149127    -0.29200
N886        N  0.98755692  0.46239929  0.52814079    -0.45800
C887        C  0.00737910  0.50606279  0.53723047    -0.05100
C888        C  0.02754431  0.55245197  0.52856397    -0.22400
H889        H  0.04907088  0.60766797  0.49979653     0.19400
H890        H  0.96098813  0.40764758  0.50021792     0.18200
H891        H  0.96392724  0.42221324  0.46737263     0.14500
H892        H  0.04533996  0.59292200  0.53271640     0.14300
H893        H  0.03888492  0.59233035  0.46835392     0.32500
H894        H  0.96991498  0.42277268  0.53160731     0.35200
C895        C  0.72169386  0.53187018  0.41388590     0.20800
C896        C  0.77684151  0.56300107  0.41184288    -0.39000
C897        C  0.80561761  0.53643870  0.41365770     0.19800
C898        C  0.78124152  0.48285846  0.41716402     0.22500
C899        C  0.72597476  0.45162024  0.41916849    -0.39500
C900        C  0.69715833  0.47826139  0.41737682     0.21300
N901        N  0.68589189  0.54814485  0.41308587    -0.32800
C902        C  0.63813275  0.50466108  0.41603175    -0.10400
C903        C  0.64338860  0.46013474  0.41871634    -0.29200
N904        N  0.81750305  0.46720366  0.41838276    -0.45800
C905        C  0.86525272  0.51117596  0.41570415    -0.05100
C906        C  0.85950048  0.55518133  0.41271772    -0.22400
H907        H  0.79597931  0.60495348  0.40918121     0.19400
H908        H  0.70689970  0.40979190  0.42198971     0.18200
H909        H  0.61226041  0.42022192  0.42145947     0.14500
H910        H  0.89051899  0.59537908  0.41021920     0.14300
H911        H  0.69349581  0.58655483  0.41071636     0.32500
H912        H  0.81028231  0.42906969  0.42098750     0.35200
C913        C  0.22501733  0.53802472  0.41922977     0.20800
C914        C  0.28064675  0.56931094  0.41987226    -0.39000
C915        C  0.30848634  0.54147150  0.41884234     0.19800
C916        C  0.28276497  0.48670294  0.41734747     0.22500
C917        C  0.22722530  0.45545801  0.41674496    -0.39500
C918        C  0.19944752  0.48326685  0.41772825     0.21300
N919        N  0.18955603  0.55488554  0.41958677    -0.32800
C920        C  0.14119228  0.51052468  0.41826346    -0.10400
C921        C  0.14569536  0.46506945  0.41714013    -0.29200
N922        N  0.31802982  0.46977289  0.41646790    -0.45800
C923        C  0.36658322  0.51400506  0.41737208    -0.05100
C924        C  0.36237237  0.55958808  0.41887406    -0.22400
H925        H  0.30074347  0.61214504  0.42094744     0.19400
H926        H  0.20714724  0.41268486  0.41547287     0.18200
H927        H  0.11396956  0.42434259  0.41583705     0.14500
H928        H  0.39434266  0.60033076  0.41984841     0.14300
H929        H  0.19775342  0.59415586  0.42048951     0.32500
H930        H  0.30957927  0.43049071  0.41528446     0.35200
C931        C  0.98378952  0.97018761  0.48645831     0.20800
C932        C  0.96065150  0.94046703  0.49975529    -0.39000
C933        C  0.97907097  0.96806973  0.51363367     0.19800
C934        C  0.01762083  0.02130533  0.51428342     0.22500
C935        C  0.04090675  0.05114370  0.50094440    -0.39500
C936        C  0.02232221  0.02346345  0.48701219     0.21300
N937        N  0.97211836  0.95323384  0.47188047    -0.32800
C938        C  0.00299500  0.99609361  0.46304980    -0.10400
C939        C  0.03509244  0.04064457  0.47204543    -0.29200
N940        N  0.02796066  0.03807330  0.52894842    -0.45800
C941        C  0.99587466  0.99498064  0.53760690    -0.05100
C942        C  0.96484939  0.95070184  0.52846619    -0.22400
H943        H  0.93032693  0.89891115  0.49932396     0.19400
H944        H  0.07085902  0.09283147  0.50137269     0.18200
H945        H  0.06328298  0.08032515  0.46815196     0.14500
H946        H  0.93587134  0.91106592  0.53219339     0.14300
H947        H  0.94407464  0.91513816  0.46816400     0.32500
H948        H  0.05536942  0.07618765  0.53282597     0.35200
C949        C  0.77918210  0.97154018  0.41553526     0.20800
C950        C  0.72394456  0.94000529  0.41399026    -0.39000
C951        C  0.69535944  0.96690945  0.41514590     0.19800
C952        C  0.71982262  0.02119697  0.41760533     0.22500
C953        C  0.77529771  0.05288819  0.41913649    -0.39500
C954        C  0.80402276  0.02586011  0.41799275     0.21300
N955        N  0.81485977  0.95509584  0.41501946    -0.32800
C956        C  0.86294267  0.99912652  0.41711890    -0.10400
C957        C  0.85796516  0.04421246  0.41899069    -0.29200
N958        N  0.68342652  0.03690318  0.41833785    -0.45800
C959        C  0.63565237  0.99214091  0.41638582    -0.05100
C960        C  0.64152118  0.94778062  0.41435766    -0.22400
H961        H  0.70460332  0.89752843  0.41210949     0.19400
H962        H  0.79459973  0.09531198  0.42110698     0.18200
H963        H  0.88942335  0.08471109  0.42089064     0.14500
H964        H  0.61051034  0.90699073  0.41259143     0.14300
H965        H  0.80695939  0.91621008  0.41331781     0.32500
H966        H  0.69055842  0.07548534  0.42015827     0.35200
C967        C  0.18851413  0.95847489  0.41907119     0.20800
C968        C  0.21268349  0.92730297  0.42118243    -0.39000
C969        C  0.26825527  0.95408159  0.41936275     0.19800
C970        C  0.29713187  0.00767712  0.41582203     0.22500
C971        C  0.27308106  0.03862762  0.41376451    -0.39500
C972        C  0.21788088  0.01200963  0.41552273     0.21300
N973        N  0.13644007  0.94287321  0.41992923    -0.32800
C974        C  0.13313977  0.98699444  0.41693701    -0.10400
C975        C  0.18306576  0.03078564  0.41418027    -0.29200
N976        N  0.34908062  0.02405318  0.41465586    -0.45800
C977        C  0.35373257  0.98072979  0.41737706    -0.05100
C978        C  0.30417786  0.93611279  0.42036747    -0.22400
H979        H  0.18996024  0.88540164  0.42391854     0.19400
H980        H  0.29575659  0.08046283  0.41094713     0.18200
H981        H  0.19255832  0.07095717  0.41148849     0.14500
H982        H  0.29569124  0.89617404  0.42293861     0.14300
H983        H  0.10517734  0.90476053  0.42243065     0.32500
H984        H  0.37958174  0.06244130  0.41206714     0.35200
C985        C  0.52373706  0.50442868  0.15225934     0.20800
C986        C  0.55574867  0.52076357  0.16546690    -0.39000
C987        C  0.52848843  0.50614412  0.17950857     0.19800
C988        C  0.47352651  0.47739378  0.18032349     0.22500
C989        C  0.44148529  0.46086508  0.16710382    -0.39500
C990        C  0.46877122  0.47556253  0.15305193     0.21300
N991        N  0.54002985  0.51407299  0.13758190    -0.32800
C992        C  0.49516605  0.49118799  0.12894746    -0.10400
C993        C  0.44986304  0.46670676  0.13817561    -0.29200
N994        N  0.45730265  0.46979787  0.19502847    -0.45800
C995        C  0.50224354  0.49398856  0.20363203    -0.05100
C996        C  0.54746627  0.51689490  0.19436223    -0.22400
H997        H  0.59870638  0.54365107  0.16485374     0.19400
H998        H  0.39850235  0.43870029  0.16771749     0.18200
H999        H  0.40874303  0.44557686  0.13449694     0.14500
H1000       H  0.58858510  0.53920844  0.19799820     0.14300
H1001       H  0.57925862  0.53507565  0.13367758     0.32500
H1002       H  0.41808351  0.45001864  0.19896579     0.35200
C1003       C  0.52246749  0.53237097  0.31919533     0.20800
C1004       C  0.54688151  0.56187863  0.33252063    -0.39000
C1005       C  0.52421031  0.53652604  0.34648940     0.19800
C1006       C  0.48106965  0.48542187  0.34711852     0.22500
C1007       C  0.45609882  0.45633658  0.33380976    -0.39500
C1008       C  0.47823050  0.48196593  0.31986027     0.21300
N1009       N  0.53692620  0.54696331  0.30452685    -0.32800
C1010       C  0.50102662  0.50587756  0.29583645    -0.10400
C1011       C  0.46364966  0.46479201  0.30497054    -0.29200
N1012       N  0.46809799  0.46957995  0.36175325    -0.45800
C1013       C  0.50271009  0.51114700  0.37051911    -0.05100
C1014       C  0.53818465  0.55375701  0.36142913    -0.22400
H1015       H  0.58114494  0.60149013  0.33205130     0.19400
H1016       H  0.42206393  0.41657961  0.33428100     0.18200
H1017       H  0.43089290  0.42703521  0.30120646     0.14500
H1018       H  0.57033608  0.59180258  0.36524796     0.14300
H1019       H  0.56886950  0.58273407  0.30065387     0.32500
H1020       H  0.43735839  0.43291160  0.36555387     0.35200
C1021       C  0.46746598  0.69109080  0.24920553     0.20800
C1022       C  0.43489734  0.71406338  0.25017357    -0.39000
C1023       C  0.46150453  0.76984218  0.24974608     0.19800
C1024       C  0.51630559  0.80017068  0.24855783     0.22500
C1025       C  0.54877230  0.77724688  0.24760820    -0.39500
C1026       C  0.52222152  0.72162886  0.24794810     0.21300
N1027       N  0.45212435  0.63909829  0.24938721    -0.32800
C1028       C  0.49747454  0.63667062  0.24825402    -0.10400
C1029       C  0.54199022  0.68733471  0.24731254    -0.29200
N1030       N  0.53206886  0.85215313  0.24837327    -0.45800
C1031       C  0.48710045  0.85519874  0.24936085    -0.05100
C1032       C  0.44213893  0.80465751  0.25024952    -0.22400
H1033       H  0.39207243  0.69029357  0.25113382     0.19400
H1034       H  0.59159946  0.80101198  0.24665259     0.18200
H1035       H  0.58325792  0.69765944  0.24644092     0.14500
H1036       H  0.40101481  0.79479601  0.25115404     0.14300
H1037       H  0.41328907  0.60726379  0.25036317     0.32500
H1038       H  0.57110515  0.88369764  0.24754014     0.35200
C1039       C  0.47557416  0.28005822  0.25164496     0.20800
C1040       C  0.44262215  0.22469528  0.25156113    -0.39000
C1041       C  0.46879142  0.19525159  0.25108886     0.19800
C1042       C  0.52367745  0.21914920  0.25069927     0.22500
C1043       C  0.55676117  0.27469613  0.25077817    -0.39500
C1044       C  0.53049510  0.30424037  0.25128430     0.21300
N1045       N  0.46011326  0.31649420  0.25183575    -0.32800
C1046       C  0.50531794  0.36437985  0.25156904    -0.10400
C1047       C  0.55023665  0.35851915  0.25128054    -0.29200
N1048       N  0.53861375  0.18219763  0.25034054    -0.45800
C1049       C  0.49291272  0.13456119  0.25055571    -0.05100
C1050       C  0.44851754  0.14107937  0.25098262    -0.22400
H1051       H  0.39969575  0.20592601  0.25182109     0.19400
H1052       H  0.59968174  0.29346143  0.25044705     0.18200
H1053       H  0.59151013  0.38961474  0.25085763     0.14500
H1054       H  0.40707637  0.11035533  0.25125186     0.14300
H1055       H  0.42101597  0.30918127  0.25195084     0.32500
H1056       H  0.57751228  0.18894641  0.25004974     0.35200
C1057       C  0.46636400  0.98347495  0.15271987     0.20800
C1058       C  0.43501432  0.97127132  0.16596975    -0.39000
C1059       C  0.46287766  0.98553726  0.17990340     0.19800
C1060       C  0.51780787  0.01023393  0.18059804     0.22500
C1061       C  0.54924775  0.02278915  0.16732430    -0.39500
C1062       C  0.52131920  0.00836290  0.15337461     0.21300
N1063       N  0.44934585  0.97373043  0.13811376    -0.32800
C1064       C  0.49378823  0.99277990  0.12940363    -0.10400
C1065       C  0.53949369  0.01461302  0.13848541    -0.29200
N1066       N  0.53445646  0.01809908  0.19526355    -0.45800
C1067       C  0.48973621  0.99803352  0.20392523    -0.05100
C1068       C  0.44435877  0.97769452  0.19476233    -0.22400
H1069       H  0.39205369  0.95161692  0.16547235     0.19400
H1070       H  0.59217683  0.04189643  0.16782626     0.18200
H1071       H  0.58041441  0.03298510  0.13469264     0.14500
H1072       H  0.40333041  0.95872442  0.19848199     0.14300
H1073       H  0.41001220  0.95583585  0.13430058     0.32500
H1074       H  0.57366696  0.03519015  0.19913846     0.35200
C1075       C  0.47482841  0.96228386  0.34717041     0.20800
C1076       C  0.44917842  0.93439882  0.33374587    -0.39000
C1077       C  0.46965707  0.96192767  0.31991567     0.19800
C1078       C  0.51323583  0.01280402  0.31948916     0.22500
C1079       C  0.53850738  0.04089657  0.33290925    -0.39500
C1080       C  0.51723917  0.01383582  0.34674375     0.21300
N1081       N  0.46201136  0.94555633  0.36175614    -0.32800
C1082       C  0.49584532  0.98712489  0.37066094    -0.10400
C1083       C  0.53090810  0.03041007  0.36172314    -0.29200
N1084       N  0.52556925  0.02989766  0.30493275    -0.45800
C1085       C  0.48895254  0.99007918  0.29605354    -0.05100
C1086       C  0.45323576  0.94706254  0.30495633    -0.22400
H1087       H  0.41529192  0.89452967  0.33406038     0.19400
H1088       H  0.57181925  0.08110743  0.33260682     0.18200
H1089       H  0.56198861  0.06886174  0.36566829     0.14500
H1090       H  0.42037225  0.90970579  0.30099129     0.14300
H1091       H  0.43131507  0.90869377  0.36543560     0.32500
H1092       H  0.55655920  0.06659355  0.30125433     0.35200
C1093       C  0.98236388  0.49414819  0.15292036     0.20800
C1094       C  0.95087302  0.47764975  0.16622086    -0.39000
C1095       C  0.97874432  0.49031718  0.18017347     0.19800
C1096       C  0.03376192  0.51723311  0.18082378     0.22500
C1097       C  0.06525407  0.53380436  0.16752673    -0.39500
C1098       C  0.03738120  0.52124227  0.15357327     0.21300
N1099       N  0.96551985  0.48631838  0.13826951    -0.32800
C1100       C  0.01014007  0.50852535  0.12953444    -0.10400
C1101       C  0.05574650  0.53088558  0.13866554    -0.29200
N1102       N  0.05060319  0.52455700  0.19546602    -0.45800
C1103       C  0.00597601  0.50235450  0.20419044    -0.05100
C1104       C  0.96036615  0.48049202  0.19507508    -0.22400
H1105       H  0.90786149  0.45646345  0.16574051     0.19400
H1106       H  0.10826459  0.55483666  0.16800856     0.18200
H1107       H  0.09674974  0.55080850  0.13489463     0.14500
H1108       H  0.91936387  0.46038344  0.19885043     0.14300
H1109       H  0.92614750  0.46662920  0.13444871     0.32500
H1110       H  0.08998026  0.54379533  0.19928951     0.35200
C1111       C  0.98836211  0.48347437  0.34757021     0.20800
C1112       C  0.96263582  0.45411856  0.33438072    -0.39000
C1113       C  0.98597434  0.47808378  0.32037357     0.19800
C1114       C  0.03211097  0.52703646  0.31957767     0.22500
C1115       C  0.05750480  0.55674302  0.33278241    -0.39500
C1116       C  0.03350897  0.53321601  0.34680254     0.21300
N1117       N  0.97357727  0.46963068  0.36220919    -0.32800
C1118       C  0.00895310  0.51117793  0.37082777    -0.10400
C1119       C  0.04697438  0.55172182  0.36166010    -0.29200
N1120       N  0.04638040  0.54090222  0.30488524    -0.45800
C1121       C  0.00845915  0.50097311  0.29631148    -0.05100
C1122       C  0.97004738  0.46112141  0.30553582    -0.22400
H1123       H  0.92673005  0.41572579  0.33498113     0.19400
H1124       H  0.09294676  0.59549845  0.33217391     0.18200
H1125       H  0.08010514  0.58931162  0.36537212     0.14500
H1126       H  0.93527494  0.42472184  0.30186824     0.14300
H1127       H  0.94097392  0.43441975  0.36609800     0.32500
H1128       H  0.07909732  0.57588590  0.30091667     0.35200
C1129       C  0.03365249  0.80654454  0.24885093     0.20800
C1130       C  0.06461799  0.78181829  0.24862028    -0.39000
C1131       C  0.03634850  0.72617773  0.24962627     0.19800
C1132       C  0.98145331  0.69734860  0.25079738     0.22500
C1133       C  0.95048241  0.72205335  0.25099601    -0.39500
C1134       C  0.97873881  0.77766351  0.24994886     0.21300
N1135       N  0.05093412  0.85894206  0.24826786    -0.32800
C1136       C  0.00664582  0.86333491  0.24897216    -0.10400
C1137       C  0.96088065  0.81352601  0.24997395    -0.29200
N1138       N  0.96416602  0.64498751  0.25149238    -0.45800
C1139       C  0.00837786  0.64047653  0.25070940    -0.05100
C1140       C  0.05415716  0.69023769  0.24957491    -0.22400
H1141       H  0.10753769  0.80423135  0.24774070     0.19400
H1142       H  0.90756537  0.69964449  0.25189642     0.18200
H1143       H  0.92010716  0.80482806  0.25085977     0.14500
H1144       H  0.09490417  0.69886952  0.24867900     0.14300
H1145       H  0.09037073  0.88978549  0.24757208     0.32500
H1146       H  0.92472321  0.61420715  0.25229780     0.35200
C1147       C  0.03046943  0.22165269  0.25144122     0.20800
C1148       C  0.06177625  0.27717156  0.25092543    -0.39000
C1149       C  0.03379462  0.30484951  0.25021119     0.19800
C1150       C  0.97877615  0.27923596  0.24998454     0.22500
C1151       C  0.94738128  0.22360195  0.25050138    -0.39500
C1152       C  0.97543406  0.19587577  0.25125700     0.21300
N1153       N  0.04762661  0.18647562  0.25190731    -0.32800
C1154       C  0.00327224  0.13789487  0.25197492    -0.10400
C1155       C  0.95739971  0.14205939  0.25165497    -0.29200
N1156       N  0.96194495  0.31473997  0.24953362    -0.45800
C1157       C  0.00661348  0.36319574  0.24957540    -0.05100
C1158       C  0.05217276  0.35863261  0.24991372    -0.22400
H1159       H  0.10479157  0.29734729  0.25109381     0.19400
H1160       H  0.90436290  0.20343084  0.25034416     0.18200
H1161       H  0.91649785  0.11005084  0.25141894     0.14500
H1162       H  0.09317587  0.39041419  0.25017101     0.14300
H1163       H  0.08712876  0.19498286  0.25192318     0.32500
H1164       H  0.92253880  0.30655681  0.24946953     0.35200
C1165       C  0.03210113  0.02008079  0.15307798     0.20800
C1166       C  0.06360985  0.03600274  0.16639863    -0.39000
C1167       C  0.03570470  0.02289436  0.18034868     0.19800
C1168       C  0.98068316  0.99613074  0.18095351     0.22500
C1169       C  0.94923167  0.98028358  0.16764347    -0.39500
C1170       C  0.97709060  0.99323627  0.15370659     0.21300
N1171       N  0.04888534  0.02730460  0.13843363    -0.32800
C1172       C  0.00422891  0.00485453  0.12969190    -0.10400
C1173       C  0.95865567  0.98316713  0.13880224    -0.29200
N1174       N  0.96369128  0.98736025  0.19557264    -0.45800
C1175       C  0.00817214  0.00846255  0.20435123    -0.05100
C1176       C  0.05392678  0.03120490  0.19528412    -0.22400
H1177       H  0.10661495  0.05665319  0.16593512     0.19400
H1178       H  0.90622135  0.95903551  0.16810924     0.18200
H1179       H  0.91763701  0.96281022  0.13502604     0.14500
H1180       H  0.09487595  0.05040964  0.19910419     0.14300
H1181       H  0.08823628  0.04624063  0.13462163     0.32500
H1182       H  0.92429097  0.96755494  0.19934064     0.35200
C1183       C  0.02024353  0.01690084  0.34766830     0.20800
C1184       C  0.04756852  0.04495525  0.33449384    -0.39000
C1185       C  0.02614824  0.01941387  0.32047908     0.19800
C1186       C  0.98040543  0.97013641  0.31962700     0.22500
C1187       C  0.95361060  0.94161919  0.33282864    -0.39500
C1188       C  0.97558832  0.96679780  0.34687427     0.21300
N1189       N  0.03262865  0.03258021  0.36233283    -0.32800
C1190       C  0.99623333  0.99176858  0.37094895    -0.10400
C1191       C  0.96000453  0.94994928  0.36174662    -0.29200
N1192       N  0.96692906  0.95561444  0.30490934    -0.45800
C1193       C  0.00489403  0.99561489  0.29639889    -0.05100
C1194       C  0.04271742  0.03587737  0.30567438    -0.22400
H1195       H  0.08285084  0.08383866  0.33511006     0.19400
H1196       H  0.91823970  0.90280662  0.33221035     0.18200
H1197       H  0.92674549  0.91247566  0.36544537     0.14500
H1198       H  0.07683047  0.07284542  0.30204800     0.14300
H1199       H  0.06448291  0.06833263  0.36625362     0.32500
H1200       H  0.93410698  0.92075325  0.30089579     0.35200
loop_ 
_geom_bond_atom_site_label_1 
_geom_bond_atom_site_label_2 
_geom_bond_distance 
_geom_bond_site_symmetry_2 
_ccdc_geom_bond_type 
O1            V9   1.902       .  S
O1           C11   1.265   1_665  A
O2            V9   1.902       .  S
O2           C12   1.264   1_655  A
O3            V9   1.899   1_545  S
O3           C13   1.263   1_655  A
O4            V9   1.893       .  S
O4           C14   1.262   1_655  A
O5           V10   1.907   1_565  S
O5           C14   1.266       .  A
O6           V10   1.902       .  S
O6           C13   1.265       .  A
O7           V10   1.896       .  S
O7           C12   1.263   1_545  A
O8           V10   1.898       .  S
O8           C11   1.263       .  A
V9           V10   2.088   1_665  T
C11        C1175   1.469       .  S
C12        C1193   1.466       .  S
C13        C1154   1.470       .  S
C14        C1136   1.470       .  S
O15          V23   1.900       .  S
O15          C25   1.264   1_655  A
O16          V23   1.900       .  S
O16          C26   1.264   1_655  A
O17          V23   1.901       .  S
O17          C27   1.264   1_655  A
O18          V23   1.904       .  S
O18          C28   1.265   1_655  A
O19          V24   1.897       .  S
O19          C28   1.263       .  A
O20          V24   1.899       .  S
O20          C27   1.264       .  A
O21          V24   1.899       .  S
O21          C26   1.264       .  A
O22          V24   1.900       .  S
O22          C25   1.263       .  A
V23          V24   2.087   1_655  T
C25        C1121   1.466       .  S
C26        C1103   1.469       .  S
C27        C1157   1.469       .  S
C28        C1139   1.470       .  S
O29          V37   1.899       .  S
O29          C39   1.263   1_545  A
O30          V37   1.900       .  S
O30          C40   1.263   1_545  A
O31          V37   1.898   1_565  S
O31          C41   1.264       .  A
O32          V37   1.896       .  S
O32          C42   1.262       .  A
O33          V38   1.905   1_545  S
O33          C42   1.266       .  A
O34          V38   1.904       .  S
O34          C41   1.264       .  A
O35          V38   1.902       .  S
O35          C40   1.264       .  A
O36          V38   1.900       .  S
O36          C39   1.264       .  A
V37          V38   2.088   1_545  T
C39        C1067   1.468       .  S
C40        C1085   1.468       .  S
C41        C1031   1.470       .  S
C42        C1049   1.470       .  S
O43          V51   1.900       .  S
O43          C53   1.265       .  A
O44          V51   1.907       .  S
O44          C54   1.265       .  A
O45          V51   1.904       .  S
O45          C55   1.265       .  A
O46          V51   1.906       .  S
O46          C56   1.265       .  A
O47          V52   1.898       .  S
O47          C56   1.263       .  A
O48          V52   1.900       .  S
O48          C55   1.264       .  A
O49          V52   1.893       .  S
O49          C54   1.263       .  A
O50          V52   1.901       .  S
O50          C53   1.264       .  A
V51          V52   2.088       .  T
C53        C1028   1.470       .  S
C54        C1046   1.470       .  S
C55         C995   1.472       .  S
C56        C1010   1.469       .  S
O57          V65   1.897       .  S
O57          C67   1.263   1_545  A
O58          V65   1.897       .  S
O58          C68   1.263   1_445  A
O59          V65   1.906   1_655  S
O59          C69   1.265   1_545  A
O60          V65   1.896       .  S
O60          C70   1.264   1_545  A
O61          V66   1.902   1_455  S
O61          C70   1.263       .  A
O62          V66   1.894       .  S
O62          C69   1.263       .  A
O63          V66   1.902       .  S
O63          C68   1.264       .  A
O64          V66   1.900       .  S
O64          C67   1.264   1_655  A
V65          V66   2.089   1_445  T
C67         C938   1.467       .  S
C68        C1190   1.467       .  S
C69         C956   1.469       .  S
C70         C974   1.468       .  S
O71          V79   1.891       .  S
O71          C81   1.262   1_655  A
O72          V79   1.894       .  S
O72          C82   1.262   1_655  A
O73          V79   1.897   1_455  S
O73          C83   1.264       .  A
O74          V79   1.897       .  S
O74          C84   1.263       .  A
O75          V80   1.904   1_655  S
O75          C84   1.265       .  A
O76          V80   1.899       .  S
O76          C83   1.263       .  A
O77          V80   1.903       .  S
O77          C82   1.265       .  A
O78          V80   1.903       .  S
O78          C81   1.264       .  A
V79          V80   2.088   1_655  T
C81         C884   1.465       .  S
C82        C1118   1.466       .  S
C83         C920   1.467       .  S
C84         C905   1.469       .  S
O85          V93   1.895       .  S
O85          C95   1.262   1_545  A
O86          V93   1.897       .  S
O86          C96   1.263   1_545  A
O87          V93   1.899       .  S
O87          C97   1.265   1_545  A
O88          V93   1.901       .  S
O88          C98   1.264   1_545  A
O89          V94   1.897       .  S
O89          C98   1.264       .  A
O90          V94   1.900       .  S
O90          C97   1.263       .  A
O91          V94   1.905       .  S
O91          C96   1.265       .  A
O92          V94   1.903       .  S
O92          C95   1.265       .  A
V93          V94   2.088   1_545  T
C95         C869   1.468       .  S
C96        C1082   1.470       .  S
C97         C977   1.468       .  S
C98         C959   1.468       .  S
O99         V107   1.901       .  S
O99         C109   1.264       .  A
O100        V107   1.900       .  S
O100        C110   1.264       .  A
O101        V107   1.902       .  S
O101        C111   1.264       .  A
O102        V107   1.896       .  S
O102        C112   1.263       .  A
O103        V108   1.903       .  S
O103        C112   1.264       .  A
O104        V108   1.895       .  S
O104        C111   1.263       .  A
O105        V108   1.902       .  S
O105        C110   1.264       .  A
O106        V108   1.899       .  S
O106        C109   1.264       .  A
V107        V108   2.089       .  T
C109        C848   1.469       .  S
C110       C1013   1.470       .  S
C111        C923   1.467       .  S
C112        C902   1.469       .  S
O113        V121   1.903       .  S
O113        C123   1.264   1_665  A
O114        V121   1.903       .  S
O114        C124   1.265   1_665  A
O115        V121   1.899   1_545  S
O115        C125   1.263   1_655  A
O116        V121   1.903       .  S
O116        C126   1.265   1_655  A
O117        V122   1.897   1_565  S
O117        C126   1.263       .  A
O118        V122   1.900       .  S
O118        C125   1.264       .  A
O119        V122   1.899       .  S
O119        C124   1.263       .  A
O120        V122   1.900       .  S
O120        C123   1.264       .  A
V121        V122   2.088   1_665  T
C123        C830   1.470       .  S
C124       C1172   1.471       .  S
C125        C815   1.469       .  S
C126        C794   1.469       .  S
O127        V135   1.906       .  S
O127        C137   1.265       .  A
O128        V135   1.902       .  S
O128        C138   1.265       .  A
O129        V135   1.901       .  S
O129        C139   1.264       .  A
O130        V135   1.904       .  S
O130        C140   1.266       .  A
O131        V136   1.896       .  S
O131        C140   1.262   1_655  A
O132        V136   1.898       .  S
O132        C139   1.264   1_655  A
O133        V136   1.902       .  S
O133        C138   1.264   1_655  A
O134        V136   1.900       .  S
O134        C137   1.264   1_655  A
V135        V136   2.088   1_455  T
C137        C776   1.471       .  S
C138       C1100   1.471       .  S
C139        C812   1.469       .  S
C140        C797   1.469       .  S
O141        V149   1.895       .  S
O141        C151   1.263   1_545  A
O142        V149   1.895       .  S
O142        C152   1.263   1_545  A
O143        V149   1.901   1_565  S
O143        C153   1.264       .  A
O144        V149   1.904       .  S
O144        C154   1.265       .  A
O145        V150   1.895   1_545  S
O145        C154   1.263       .  A
O146        V150   1.900       .  S
O146        C153   1.264       .  A
O147        V150   1.899       .  S
O147        C152   1.264       .  A
O148        V150   1.897       .  S
O148        C151   1.263       .  A
V149        V150   2.089   1_545  T
C151        C761   1.463       .  S
C152       C1064   1.466       .  S
C153        C722   1.470       .  S
C154        C740   1.469       .  S
O155        V163   1.900       .  S
O155        C165   1.264       .  A
O156        V163   1.902       .  S
O156        C166   1.265       .  A
O157        V163   1.900       .  S
O157        C167   1.263       .  A
O158        V163   1.902       .  S
O158        C168   1.265       .  A
O159        V164   1.897       .  S
O159        C168   1.263       .  A
O160        V164   1.901       .  S
O160        C167   1.265       .  A
O161        V164   1.898       .  S
O161        C166   1.264       .  A
O162        V164   1.900       .  S
O162        C165   1.263       .  A
V163        V164   2.088       .  T
C165        C704   1.464       .  S
C166        C992   1.471       .  S
C167        C725   1.470       .  S
C168        C743   1.469       .  S
O169        V177   1.903       .  S
O169        C179   1.264   1_565  A
O170        V177   1.900       .  S
O170        C180   1.264   1_565  A
O171        V177   1.896   1_545  S
O171        C181   1.263       .  A
O172        V177   1.902   1_655  S
O172        C182   1.264       .  A
O173        V178   1.899   1_565  S
O173        C182   1.264       .  A
O174        V178   1.902   1_455  S
O174        C181   1.264       .  A
O175        V178   1.898       .  S
O175        C180   1.263   1_655  A
O176        V178   1.900       .  S
O176        C179   1.264   1_655  A
V177        V178   2.088   1_465  T
C179        C833   1.470       .  S
C180        C686   1.467       .  S
C181        C668   1.468       .  S
C182        C653   1.470       .  S
O183        V191   1.906       .  S
O183        C193   1.266       .  A
O184        V191   1.904       .  S
O184        C194   1.265       .  A
O185        V191   1.900       .  S
O185        C195   1.263       .  A
O186        V191   1.899   1_455  S
O186        C196   1.265       .  A
O187        V192   1.902       .  S
O187        C196   1.264       .  A
O188        V192   1.900   1_655  S
O188        C195   1.265       .  A
O189        V192   1.901       .  S
O189        C194   1.264   1_455  A
O190        V192   1.900       .  S
O190        C193   1.263   1_455  A
V191        V192   2.087   1_655  T
C193        C779   1.471       .  S
C194        C632   1.473       .  S
C195        C596   1.469       .  S
C196        C614   1.471       .  S
O197        V205   1.898       .  S
O197        C207   1.263   1_545  A
O198        V205   1.896       .  S
O198        C208   1.264   1_545  A
O199        V205   1.898   1_565  S
O199        C209   1.264       .  A
O200        V205   1.904       .  S
O200        C210   1.264       .  A
O201        V206   1.896   1_545  S
O201        C210   1.264       .  A
O202        V206   1.904       .  S
O202        C209   1.264       .  A
O203        V206   1.900       .  S
O203        C208   1.264       .  A
O204        V206   1.897       .  S
O204        C207   1.263       .  A
V205        V206   2.088   1_545  T
C207        C758   1.462       .  S
C208        C578   1.468       .  S
C209        C617   1.471       .  S
C210        C599   1.469       .  S
O211        V219   1.895       .  S
O211        C221   1.263       .  A
O212        V219   1.894       .  S
O212        C222   1.263       .  A
O213        V219   1.898       .  S
O213        C223   1.263       .  A
O214        V219   1.900       .  S
O214        C224   1.264       .  A
O215        V220   1.901       .  S
O215        C224   1.264       .  A
O216        V220   1.901       .  S
O216        C223   1.264       .  A
O217        V220   1.899       .  S
O217        C222   1.264       .  A
O218        V220   1.899       .  S
O218        C221   1.264       .  A
V219        V220   2.089       .  T
C221        C707   1.465       .  S
C222        C560   1.464       .  S
C223        C671   1.468       .  S
C224        C650   1.471       .  S
O225        V233   1.903       .  S
O225        C235   1.264   1_445  A
O226        V233   1.900       .  S
O226        C236   1.264   1_445  A
O227        V233   1.901       .  S
O227        C237   1.264   1_545  A
O228        V233   1.899   1_655  S
O228        C238   1.264   1_545  A
O229        V234   1.900       .  S
O229        C238   1.264       .  A
O230        V234   1.897   1_455  S
O230        C237   1.263       .  A
O231        V234   1.897       .  S
O231        C236   1.262       .  A
O232        V234   1.895       .  S
O232        C235   1.264       .  A
V233        V234   2.087   1_445  T
C235        C941   1.468       .  S
C236        C542   1.462       .  S
C237        C527   1.468       .  S
C238        C506   1.469       .  S
O239        V247   1.898       .  S
O239        C249   1.263   1_655  A
O240        V247   1.898       .  S
O240        C250   1.263   1_655  A
O241        V247   1.908       .  S
O241        C251   1.265       .  A
O242        V247   1.899   1_455  S
O242        C252   1.264       .  A
O243        V248   1.899       .  S
O243        C252   1.263       .  A
O244        V248   1.892   1_655  S
O244        C251   1.263       .  A
O245        V248   1.895       .  S
O245        C250   1.263       .  A
O246        V248   1.895       .  S
O246        C249   1.263       .  A
V247        V248   2.088   1_655  T
C249        C887   1.464       .  S
C250        C488   1.461       .  S
C251        C455   1.469       .  S
C252        C470   1.468       .  S
O253        V261   1.898       .  S
O253        C263   1.264       .  A
O254        V261   1.902       .  S
O254        C264   1.264       .  A
O255        V261   1.902       .  S
O255        C265   1.264       .  A
O256        V261   1.897       .  S
O256        C266   1.263       .  A
O257        V262   1.900       .  S
O257        C266   1.264   1_545  A
O258        V262   1.896       .  S
O258        C265   1.263   1_545  A
O259        V262   1.899       .  S
O259        C264   1.264   1_545  A
O260        V262   1.901       .  S
O260        C263   1.264   1_545  A
V261        V262   2.089   1_565  T
C263        C866   1.469       .  S
C264        C437   1.470       .  S
C265        C524   1.468       .  S
C266        C509   1.468   1_565  S
O267        V275   1.898       .  S
O267        C277   1.263       .  A
O268        V275   1.897       .  S
O268        C278   1.263       .  A
O269        V275   1.901       .  S
O269        C279   1.265       .  A
O270        V275   1.903       .  S
O270        C280   1.264       .  A
O271        V276   1.895       .  S
O271        C280   1.264       .  A
O272        V276   1.896       .  S
O272        C279   1.263       .  A
O273        V276   1.903       .  S
O273        C278   1.264       .  A
O274        V276   1.901       .  S
O274        C277   1.264       .  A
V275        V276   2.087       .  T
C277        C851   1.468       .  S
C278        C416   1.466       .  S
C279        C452   1.467       .  S
C280        C473   1.468       .  S
O281        V289   1.898       .  S
O281        C291   1.264   1_565  A
O282        V289   1.903       .  S
O282        C292   1.264   1_565  A
O283        V289   1.903   1_545  S
O283        C293   1.265       .  A
O284        V289   1.904   1_655  S
O284        C294   1.265       .  A
O285        V290   1.896   1_565  S
O285        C294   1.264       .  A
O286        V290   1.897   1_455  S
O286        C293   1.263       .  A
O287        V290   1.894       .  S
O287        C292   1.263   1_655  A
O288        V290   1.897       .  S
O288        C291   1.263   1_655  A
V289        V290   2.089   1_465  T
C291        C689   1.466       .  S
C292        C545   1.467       .  S
C293        C398   1.469       .  S
C294        C380   1.470       .  S
O295        V303   1.900       .  S
O295        C305   1.264       .  A
O296        V303   1.903       .  S
O296        C306   1.264   1_655  A
O297        V303   1.901   1_455  S
O297        C307   1.264       .  A
O298        V303   1.904       .  S
O298        C308   1.265       .  A
O299        V304   1.896   1_655  S
O299        C308   1.263       .  A
O300        V304   1.901       .  S
O300        C307   1.264       .  A
O301        V304   1.899       .  S
O301        C306   1.264       .  A
O302        V304   1.897       .  S
O302        C305   1.263   1_455  A
V303        V304   2.089   1_655  T
C305        C491   1.466       .  S
C306        C635   1.472       .  S
C307        C362   1.471       .  S
C308        C344   1.470       .  S
O309        V317   1.901       .  S
O309        C319   1.264       .  A
O310        V317   1.901       .  S
O310        C320   1.264       .  A
O311        V317   1.906   1_545  S
O311        C321   1.266       .  A
O312        V317   1.899       .  S
O312        C322   1.264       .  A
O313        V318   1.901   1_565  S
O313        C322   1.264       .  A
O314        V318   1.896       .  S
O314        C321   1.263       .  A
O315        V318   1.903       .  S
O315        C320   1.264   1_545  A
O316        V318   1.900       .  S
O316        C319   1.264   1_545  A
V317        V318   2.087   1_565  T
C319        C581   1.470       .  S
C320        C434   1.468       .  S
C321        C347   1.471       .  S
C322        C365   1.469       .  S
O323        V331   1.897       .  S
O323        C333   1.262       .  A
O324        V331   1.891       .  S
O324        C334   1.262       .  A
O325        V331   1.896       .  S
O325        C335   1.263       .  A
O326        V331   1.900       .  S
O326        C336   1.264       .  A
O327        V332   1.901       .  S
O327        C336   1.264       .  A
O328        V332   1.904       .  S
O328        C335   1.265       .  A
O329        V332   1.901       .  S
O329        C334   1.264       .  A
O330        V332   1.900       .  S
O330        C333   1.264       .  A
V331        V332   2.087       .  T
C333        C419   1.465       .  S
C334        C563   1.464       .  S
C335        C401   1.469       .  S
C336        C383   1.471       .  S
C337        C342   1.385       .  A
C337        C338   1.404       .  A
C337        N343   1.342       .  A
C338        C339   1.402       .  A
C338        H349   1.082       .  S
C339        C348   1.379       .  A
C339        C340   1.384       .  A
C340        C341   1.404       .  A
C340        N346   1.342       .  A
C341        C342   1.402       .  A
C341        H350   1.082       .  S
C342        C345   1.380       .  A
N343        C344   1.355       .  A
N343        H353   1.045       .  S
C344        C345   1.395       .  A
C345        H351   1.082       .  S
N346        C347   1.356       .  A
N346        H354   1.045       .  S
C347        C348   1.395       .  A
C348        H352   1.082       .  S
C355        C360   1.385       .  A
C355        C356   1.403       .  A
C355        N361   1.343       .  A
C356        C357   1.402       .  A
C356        H367   1.082       .  S
C357        C366   1.378       .  A
C357        C358   1.385       .  A
C358        C359   1.403       .  A
C358        N364   1.343       .  A
C359        C360   1.402       .  A
C359        H368   1.082       .  S
C360        C363   1.378       .  A
N361        C362   1.356       .  A
N361        H371   1.045       .  S
C362        C363   1.395       .  A
C363        H369   1.082       .  S
N364        C365   1.355       .  A
N364        H372   1.045       .  S
C365        C366   1.395       .  A
C366        H370   1.082       .  S
C373        C378   1.385       .  A
C373        C374   1.404       .  A
C373        N379   1.345       .  A
C374        C375   1.404       .  A
C374        H385   1.082       .  S
C375        C384   1.378       .  A
C375        C376   1.385       .  A
C376        C377   1.402       .  A
C376        N382   1.343       .  A
C377        C378   1.402       .  A
C377        H386   1.082       .  S
C378        C381   1.375       .  A
N379        C380   1.356       .  A
N379        H389   1.045       .  S
C380        C381   1.394       .  A
C381        H387   1.082       .  S
N382        C383   1.355       .  A
N382        H390   1.045       .  S
C383        C384   1.396       .  A
C384        H388   1.082       .  S
C391        C396   1.385       .  A
C391        C392   1.404       .  A
C391        N397   1.343       .  A
C392        C393   1.403       .  A
C392        H403   1.082       .  S
C393        C402   1.380       .  A
C393        C394   1.385       .  A
C394        C395   1.402       .  A
C394        N400   1.341       .  A
C395        C396   1.401       .  A
C395        H404   1.082       .  S
C396        C399   1.377       .  A
N397        C398   1.356       .  A
N397        H407   1.045       .  S
C398        C399   1.394       .  A
C399        H405   1.082       .  S
N400        C401   1.355       .  A
N400        H408   1.045       .  S
C401        C402   1.395       .  A
C402        H406   1.082       .  S
C409        C414   1.385       .  A
C409        C410   1.401       .  A
C409        N415   1.341       .  A
C410        C411   1.399       .  A
C410        H421   1.082       .  S
C411        C420   1.376       .  A
C411        C412   1.385       .  A
C412        C413   1.405       .  A
C412        N418   1.343       .  A
C413        C414   1.404       .  A
C413        H422   1.082       .  S
C414        C417   1.380       .  A
N415        C416   1.354       .  A
N415        H425   1.045       .  S
C416        C417   1.395       .  A
C417        H423   1.082       .  S
N418        C419   1.356       .  A
N418        H426   1.045       .  S
C419        C420   1.392       .  A
C420        H424   1.082       .  S
C427        C432   1.385   1_545  A
C427        C428   1.403       .  A
C427        N433   1.344       .  A
C428        C429   1.402       .  A
C428        H439   1.082       .  S
C429        C438   1.376       .  A
C429        C430   1.385   1_545  A
C430        C431   1.405       .  A
C430        N436   1.345       .  A
C431        C432   1.404       .  A
C431        H440   1.082       .  S
C432        C435   1.379       .  A
N433        C434   1.354   1_545  A
N433        H443   1.044       .  S
C434        C435   1.395       .  A
C435        H441   1.082       .  S
N436        C437   1.356       .  A
N436        H444   1.045       .  S
C437        C438   1.394   1_565  A
C438        H442   1.082       .  S
C445        C450   1.385       .  A
C445        C446   1.400       .  A
C445        N451   1.341       .  A
C446        C447   1.399       .  A
C446        H457   1.082       .  S
C447        C456   1.373       .  A
C447        C448   1.385       .  A
C448        C449   1.405       .  A
C448        N454   1.346       .  A
C449        C450   1.405       .  A
C449        H458   1.082       .  S
C450        C453   1.379       .  A
N451        C452   1.353       .  A
N451        H461   1.045       .  S
C452        C453   1.396       .  A
C453        H459   1.082       .  S
N454        C455   1.356       .  A
N454        H462   1.045       .  S
C455        C456   1.393       .  A
C456        H460   1.082       .  S
C463        C468   1.385       .  A
C463        C464   1.399       .  A
C463        N469   1.341       .  A
C464        C465   1.399       .  A
C464        H475   1.082       .  S
C465        C474   1.373       .  A
C465        C466   1.385       .  A
C466        C467   1.406       .  A
C466        N472   1.345       .  A
C467        C468   1.405       .  A
C467        H476   1.082       .  S
C468        C471   1.380       .  A
N469        C470   1.353       .  A
N469        H479   1.045       .  S
C470        C471   1.397       .  A
C471        H477   1.082       .  S
N472        C473   1.357       .  A
N472        H480   1.046       .  S
C473        C474   1.392       .  A
C474        H478   1.082       .  S
C481        C486   1.385   1_655  A
C481        C482   1.400       .  A
C481        N487   1.340       .  A
C482        C483   1.399       .  A
C482        H493   1.082       .  S
C483        C492   1.375       .  A
C483        C484   1.385       .  A
C484        C485   1.404   1_655  A
C484        N490   1.343       .  A
C485        C486   1.402       .  A
C485        H494   1.082       .  S
C486        C489   1.378       .  A
N487        C488   1.353   1_655  A
N487        H497   1.045       .  S
C488        C489   1.394       .  A
C489        H495   1.082       .  S
N490        C491   1.356       .  A
N490        H498   1.045   1_655  S
C491        C492   1.392       .  A
C492        H496   1.082       .  S
C499        C504   1.385   1_545  A
C499        C500   1.404       .  A
C499        N505   1.343       .  A
C500        C501   1.403       .  A
C500        H511   1.082       .  S
C501        C510   1.379       .  A
C501        C502   1.385   1_545  A
C502        C503   1.402       .  A
C502        N508   1.342       .  A
C503        C504   1.401       .  A
C503        H512   1.082       .  S
C504        C507   1.376       .  A
N505        C506   1.356   1_545  A
N505        H515   1.045       .  S
C506        C507   1.394       .  A
C507        H513   1.082       .  S
N508        C509   1.354   1_565  A
N508        H516   1.046       .  S
C509        C510   1.395       .  A
C510        H514   1.082       .  S
C517        C522   1.385   1_565  A
C517        C518   1.404       .  A
C517        N523   1.344       .  A
C518        C519   1.403       .  A
C518        H529   1.082       .  S
C519        C528   1.378       .  A
C519        C520   1.385   1_565  A
C520        C521   1.401       .  A
C520        N526   1.342       .  A
C521        C522   1.401       .  A
C521        H530   1.082       .  S
C522        C525   1.375       .  A
N523        C524   1.356       .  A
N523        H533   1.045       .  S
C524        C525   1.394   1_565  A
C525        H531   1.082       .  S
N526        C527   1.354   1_545  A
N526        H534   1.045       .  S
C527        C528   1.395       .  A
C528        H532   1.082       .  S
C535        C540   1.386   1_645  A
C535        C536   1.400       .  A
C535        N541   1.342       .  A
C536        C537   1.399       .  A
C536        H547   1.082       .  S
C537        C546   1.373       .  A
C537        C538   1.385   1_645  A
C538        C539   1.404       .  A
C538        N544   1.345       .  A
C539        C540   1.404       .  A
C539        H548   1.082       .  S
C540        C543   1.378       .  A
N541        C542   1.353   1_545  A
N541        H551   1.044       .  S
C542        C543   1.394   1_655  A
C543        H549   1.082       .  S
N544        C545   1.356   1_565  A
N544        H552   1.044       .  S
C545        C546   1.392   1_455  A
C546        H550   1.082       .  S
C553        C558   1.385       .  A
C553        C554   1.400       .  A
C553        N559   1.342       .  A
C554        C555   1.400       .  A
C554        H565   1.082       .  S
C555        C564   1.373       .  A
C555        C556   1.385       .  A
C556        C557   1.402       .  A
C556        N562   1.343       .  A
C557        C558   1.402       .  A
C557        H566   1.082       .  S
C558        C561   1.375       .  A
N559        C560   1.354       .  A
N559        H569   1.044       .  S
C560        C561   1.394       .  A
C561        H567   1.082       .  S
N562        C563   1.355       .  A
N562        H570   1.044       .  S
C563        C564   1.393       .  A
C564        H568   1.082       .  S
C571        C576   1.385   1_565  A
C571        C572   1.404       .  A
C571        N577   1.344       .  A
C572        C573   1.403       .  A
C572        H583   1.082       .  S
C573        C582   1.379       .  A
C573        C574   1.385   1_565  A
C574        C575   1.402       .  A
C574        N580   1.343       .  A
C575        C576   1.401       .  A
C575        H584   1.082       .  S
C576        C579   1.376       .  A
N577        C578   1.356       .  A
N577        H587   1.045       .  S
C578        C579   1.394   1_565  A
C579        H585   1.082       .  S
N580        C581   1.355   1_545  A
N580        H588   1.045       .  S
C581        C582   1.395       .  A
C582        H586   1.082       .  S
C589        C594   1.385       .  A
C589        C590   1.400       .  A
C589        N595   1.341       .  A
C590        C591   1.399       .  A
C590        H601   1.082       .  S
C591        C600   1.374       .  A
C591        C592   1.385       .  A
C592        C593   1.406       .  A
C592        N598   1.345       .  A
C593        C594   1.405       .  A
C593        H602   1.082       .  S
C594        C597   1.381       .  A
N595        C596   1.353       .  A
N595        H605   1.045       .  S
C596        C597   1.397       .  A
C597        H603   1.082       .  S
N598        C599   1.357       .  A
N598        H606   1.045       .  S
C599        C600   1.393       .  A
C600        H604   1.082       .  S
C607        C612   1.384       .  A
C607        C608   1.407       .  A
C607        N613   1.346       .  A
C608        C609   1.406       .  A
C608        H619   1.082       .  S
C609        C618   1.382       .  A
C609        C610   1.385       .  A
C610        C611   1.400       .  A
C610        N616   1.341       .  A
C611        C612   1.399       .  A
C611        H620   1.082       .  S
C612        C615   1.375       .  A
N613        C614   1.357       .  A
N613        H623   1.045       .  S
C614        C615   1.393       .  A
C615        H621   1.082       .  S
N616        C617   1.354       .  A
N616        H624   1.045       .  S
C617        C618   1.397       .  A
C618        H622   1.082       .  S
C625        C630   1.384   1_455  A
C625        C626   1.404       .  A
C625        N631   1.344       .  A
C626        C627   1.403       .  A
C626        H637   1.082       .  S
C627        C636   1.378       .  A
C627        C628   1.385   1_455  A
C628        C629   1.404       .  A
C628        N634   1.344       .  A
C629        C630   1.403       .  A
C629        H638   1.082       .  S
C630        C633   1.379       .  A
N631        C632   1.356   1_455  A
N631        H641   1.044       .  S
C632        C633   1.395       .  A
C633        H639   1.082       .  S
N634        C635   1.356   1_655  A
N634        H642   1.044       .  S
C635        C636   1.395       .  A
C636        H640   1.082       .  S
C643        C648   1.385       .  A
C643        C644   1.404       .  A
C643        N649   1.344       .  A
C644        C645   1.403       .  A
C644        H655   1.082       .  S
C645        C654   1.379       .  A
C645        C646   1.385       .  A
C646        C647   1.403       .  A
C646        N652   1.343       .  A
C647        C648   1.402       .  A
C647        H656   1.082       .  S
C648        C651   1.377       .  A
N649        C650   1.356       .  A
N649        H659   1.045       .  S
C650        C651   1.394       .  A
C651        H657   1.082       .  S
N652        C653   1.355       .  A
N652        H660   1.045       .  S
C653        C654   1.395       .  A
C654        H658   1.082       .  S
C661        C666   1.385       .  A
C661        C662   1.403       .  A
C661        N667   1.344       .  A
C662        C663   1.403       .  A
C662        H673   1.082       .  S
C663        C672   1.378       .  A
C663        C664   1.385       .  A
C664        C665   1.402       .  A
C664        N670   1.343       .  A
C665        C666   1.401       .  A
C665        H674   1.082       .  S
C666        C669   1.376       .  A
N667        C668   1.355       .  A
N667        H677   1.045       .  S
C668        C669   1.394       .  A
C669        H675   1.082       .  S
N670        C671   1.355       .  A
N670        H678   1.045       .  S
C671        C672   1.395       .  A
C672        H676   1.082       .  S
C679        C684   1.385   1_645  A
C679        C680   1.403       .  A
C679        N685   1.342       .  A
C680        C681   1.402       .  A
C680        H691   1.082       .  S
C681        C690   1.377       .  A
C681        C682   1.385   1_645  A
C682        C683   1.402       .  A
C682        N688   1.342       .  A
C683        C684   1.401       .  A
C683        H692   1.082       .  S
C684        C687   1.377       .  A
N685        C686   1.355   1_655  A
N685        H695   1.044       .  S
C686        C687   1.394   1_545  A
C687        H693   1.082       .  S
N688        C689   1.354   1_565  A
N688        H696   1.044       .  S
C689        C690   1.395   1_455  A
C690        H694   1.082       .  S
C697        C702   1.385       .  A
C697        C698   1.403       .  A
C697        N703   1.343       .  A
C698        C699   1.402   1_554  A
C698        H709   1.082       .  S
C699        C708   1.377       .  A
C699        C700   1.385       .  A
C700        C701   1.402       .  A
C700        N706   1.342       .  A
C701        C702   1.401   1_556  A
C701        H710   1.082       .  S
C702        C705   1.377       .  A
N703        C704   1.355       .  A
N703        H713   1.045       .  S
C704        C705   1.393       .  A
C705        H711   1.082       .  S
N706        C707   1.354       .  A
N706        H714   1.045       .  S
C707        C708   1.394       .  A
C708        H712   1.082       .  S
C715        C720   1.385       .  A
C715        C716   1.402       .  A
C715        N721   1.342       .  A
C716        C717   1.401       .  A
C716        H727   1.082       .  S
C717        C726   1.377       .  A
C717        C718   1.385       .  A
C718        C719   1.405       .  A
C718        N724   1.344       .  A
C719        C720   1.404       .  A
C719        H728   1.082       .  S
C720        C723   1.379       .  A
N721        C722   1.355       .  A
N721        H731   1.045       .  S
C722        C723   1.396       .  A
C723        H729   1.082       .  S
N724        C725   1.356       .  A
N724        H732   1.045       .  S
C725        C726   1.394       .  A
C726        H730   1.082       .  S
C733        C738   1.385       .  A
C733        C734   1.403       .  A
C733        N739   1.344       .  A
C734        C735   1.403       .  A
C734        H745   1.082       .  S
C735        C744   1.377       .  A
C735        C736   1.385       .  A
C736        C737   1.402       .  A
C736        N742   1.343       .  A
C737        C738   1.402       .  A
C737        H746   1.082       .  S
C738        C741   1.376       .  A
N739        C740   1.355       .  A
N739        H749   1.045       .  S
C740        C741   1.395       .  A
C741        H747   1.082       .  S
N742        C743   1.355       .  A
N742        H750   1.045       .  S
C743        C744   1.395       .  A
C744        H748   1.082       .  S
C751        C756   1.385   1_565  A
C751        C752   1.402       .  A
C751        N757   1.342       .  A
C752        C753   1.401   1_556  A
C752        H763   1.082       .  S
C753        C762   1.376       .  A
C753        C754   1.385   1_565  A
C754        C755   1.401       .  A
C754        N760   1.341       .  A
C755        C756   1.400   1_554  A
C755        H764   1.082       .  S
C756        C759   1.375       .  A
N757        C758   1.354       .  A
N757        H767   1.044       .  S
C758        C759   1.392   1_565  A
C759        H765   1.082       .  S
N760        C761   1.354   1_545  A
N760        H768   1.044       .  S
C761        C762   1.393       .  A
C762        H766   1.082       .  S
C769        C774   1.385   1_655  A
C769        C770   1.403       .  A
C769        N775   1.342       .  A
C770        C771   1.402   1_554  A
C770        H781   1.082       .  S
C771        C780   1.379       .  A
C771        C772   1.384   1_655  A
C772        C773   1.406       .  A
C772        N778   1.345       .  A
C773        C774   1.405   1_556  A
C773        H782   1.082       .  S
C774        C777   1.383       .  A
N775        C776   1.354   1_655  A
N775        H785   1.044       .  S
C776        C777   1.397       .  A
C777        H783   1.082       .  S
N778        C779   1.356   1_455  A
N778        H786   1.044       .  S
C779        C780   1.394       .  A
C780        H784   1.082       .  S
C787        C792   1.385   1_455  A
C787        C788   1.402       .  A
C787        N793   1.342       .  A
C788        C789   1.401       .  A
C788        H799   1.082       .  S
C789        C798   1.378       .  A
C789        C790   1.385   1_455  A
C790        C791   1.404       .  A
C790        N796   1.343       .  A
C791        C792   1.403       .  A
C791        H800   1.082       .  S
C792        C795   1.380       .  A
N793        C794   1.355       .  A
N793        H803   1.045       .  S
C794        C795   1.395   1_455  A
C795        H801   1.082       .  S
N796        C797   1.356   1_655  A
N796        H804   1.045       .  S
C797        C798   1.394       .  A
C798        H802   1.082       .  S
C805        C810   1.385   1_455  A
C805        C806   1.403       .  A
C805        N811   1.343       .  A
C806        C807   1.402       .  A
C806        H817   1.082       .  S
C807        C816   1.377       .  A
C807        C808   1.385   1_455  A
C808        C809   1.403       .  A
C808        N814   1.343       .  A
C809        C810   1.402       .  A
C809        H818   1.082       .  S
C810        C813   1.377       .  A
N811        C812   1.355       .  A
N811        H821   1.045       .  S
C812        C813   1.395   1_455  A
C813        H819   1.082       .  S
N814        C815   1.355   1_655  A
N814        H822   1.045       .  S
C815        C816   1.394       .  A
C816        H820   1.082       .  S
C823        C828   1.385   1_655  A
C823        C824   1.403       .  A
C823        N829   1.344       .  A
C824        C825   1.403   1_554  A
C824        H835   1.082       .  S
C825        C834   1.378       .  A
C825        C826   1.385   1_655  A
C826        C827   1.404       .  A
C826        N832   1.344       .  A
C827        C828   1.404   1_556  A
C827        H836   1.082       .  S
C828        C831   1.379       .  A
N829        C830   1.355   1_655  A
N829        H839   1.044       .  S
C830        C831   1.395       .  A
C831        H837   1.082       .  S
N832        C833   1.355       .  A
N832        H840   1.044   1_545  S
C833        C834   1.394   1_455  A
C834        H838   1.082       .  S
C841        C846   1.385       .  A
C841        C842   1.404       .  A
C841        N847   1.344       .  A
C842        C843   1.403       .  A
C842        H853   1.082       .  S
C843        C852   1.378       .  A
C843        C844   1.385       .  A
C844        C845   1.402       .  A
C844        N850   1.342       .  A
C845        C846   1.401       .  A
C845        H854   1.082       .  S
C846        C849   1.376       .  A
N847        C848   1.356       .  A
N847        H857   1.045       .  S
C848        C849   1.394       .  A
C849        H855   1.082       .  S
N850        C851   1.354       .  A
N850        H858   1.045       .  S
C851        C852   1.395       .  A
C852        H856   1.082       .  S
C859        C864   1.385   1_565  A
C859        C860   1.402       .  A
C859        N865   1.342       .  A
C860        C861   1.401       .  A
C860        H871   1.082       .  S
C861        C870   1.378       .  A
C861        C862   1.385   1_565  A
C862        C863   1.404       .  A
C862        N868   1.342       .  A
C863        C864   1.403       .  A
C863        H872   1.082       .  S
C864        C867   1.380       .  A
N865        C866   1.355       .  A
N865        H875   1.044       .  S
C866        C867   1.396   1_565  A
C867        H873   1.082       .  S
N868        C869   1.356   1_545  A
N868        H876   1.044       .  S
C869        C870   1.394       .  A
C870        H874   1.082       .  S
C877        C882   1.385   1_455  A
C877        C878   1.402       .  A
C877        N883   1.343       .  A
C878        C879   1.401       .  A
C878        H889   1.082       .  S
C879        C888   1.375       .  A
C879        C880   1.385   1_455  A
C880        C881   1.401       .  A
C880        N886   1.342       .  A
C881        C882   1.400       .  A
C881        H890   1.082       .  S
C882        C885   1.374       .  A
N883        C884   1.355       .  A
N883        H893   1.044       .  S
C884        C885   1.393   1_455  A
C885        H891   1.082       .  S
N886        C887   1.354   1_655  A
N886        H894   1.044       .  S
C887        C888   1.393       .  A
C888        H892   1.082       .  S
C895        C900   1.385       .  A
C895        C896   1.402       .  A
C895        N901   1.341       .  A
C896        C897   1.401       .  A
C896        H907   1.082       .  S
C897        C906   1.378       .  A
C897        C898   1.384       .  A
C898        C899   1.405       .  A
C898        N904   1.343       .  A
C899        C900   1.403       .  A
C899        H908   1.082       .  S
C900        C903   1.381       .  A
N901        C902   1.354       .  A
N901        H911   1.044       .  S
C902        C903   1.396       .  A
C903        H909   1.082       .  S
N904        C905   1.356       .  A
N904        H912   1.044       .  S
C905        C906   1.394       .  A
C906        H910   1.082       .  S
C913        C918   1.385       .  A
C913        C914   1.404       .  A
C913        N919   1.343       .  A
C914        C915   1.403       .  A
C914        H925   1.082       .  S
C915        C924   1.379       .  A
C915        C916   1.385       .  A
C916        C917   1.401       .  A
C916        N922   1.341       .  A
C917        C918   1.400       .  A
C917        H926   1.082       .  S
C918        C921   1.376       .  A
N919        C920   1.355       .  A
N919        H929   1.045       .  S
C920        C921   1.393       .  A
C921        H927   1.082       .  S
N922        C923   1.354       .  A
N922        H930   1.045       .  S
C923        C924   1.395       .  A
C924        H928   1.082       .  S
C931        C936   1.385   1_665  A
C931        C932   1.400       .  A
C931        N937   1.342       .  A
C932        C933   1.399       .  A
C932        H943   1.082       .  S
C933        C942   1.373       .  A
C933        C934   1.385   1_665  A
C934        C935   1.405       .  A
C934        N940   1.345       .  A
C935        C936   1.405       .  A
C935        H944   1.082       .  S
C936        C939   1.379       .  A
N937        C938   1.353   1_655  A
N937        H947   1.045       .  S
C938        C939   1.396   1_565  A
C939        H945   1.082       .  S
N940        C941   1.356   1_445  A
N940        H948   1.045       .  S
C941        C942   1.392       .  A
C942        H946   1.082       .  S
C949        C954   1.385   1_565  A
C949        C950   1.400       .  A
C949        N955   1.340       .  A
C950        C951   1.399       .  A
C950        H961   1.082       .  S
C951        C960   1.374       .  A
C951        C952   1.385   1_565  A
C952        C953   1.406       .  A
C952        N958   1.345       .  A
C953        C954   1.405       .  A
C953        H962   1.082       .  S
C954        C957   1.382       .  A
N955        C956   1.354       .  A
N955        H965   1.044       .  S
C956        C957   1.397   1_565  A
C957        H963   1.082       .  S
N958        C959   1.357   1_545  A
N958        H966   1.045       .  S
C959        C960   1.392       .  A
C960        H964   1.082       .  S
C967        C972   1.385   1_565  A
C967        C968   1.407       .  A
C967        N973   1.346       .  A
C968        C969   1.407       .  A
C968        H979   1.082       .  S
C969        C978   1.382       .  A
C969        C970   1.385   1_565  A
C970        C971   1.398       .  A
C970        N976   1.339       .  A
C971        C972   1.397       .  A
C971        H980   1.082       .  S
C972        C975   1.372       .  A
N973        C974   1.357       .  A
N973        H983   1.046       .  S
C974        C975   1.391   1_565  A
C975        H981   1.082       .  S
N976        C977   1.352   1_545  A
N976        H984   1.045       .  S
C977        C978   1.398       .  A
C978        H982   1.082       .  S
C985        C990   1.385       .  A
C985        C986   1.403       .  A
C985        N991   1.343       .  A
C986        C987   1.402       .  A
C986        H997   1.082       .  S
C987        C996   1.379       .  A
C987        C988   1.384       .  A
C988        C989   1.405       .  A
C988        N994   1.344       .  A
C989        C990   1.403       .  A
C989        H998   1.082       .  S
C990        C993   1.379       .  A
N991        C992   1.355       .  A
N991       H1001   1.044       .  S
C992        C993   1.395       .  A
C993        H999   1.082       .  S
N994        C995   1.356       .  A
N994       H1002   1.044       .  S
C995        C996   1.395       .  A
C996       H1000   1.082       .  S
C1003      C1008   1.385       .  A
C1003      C1004   1.405       .  A
C1003      N1009   1.345       .  A
C1004      C1005   1.404       .  A
C1004      H1015   1.082       .  S
C1005      C1014   1.379       .  A
C1005      C1006   1.385       .  A
C1006      C1007   1.403       .  A
C1006      N1012   1.344       .  A
C1007      C1008   1.402       .  A
C1007      H1016   1.082       .  S
C1008      C1011   1.377       .  A
N1009      C1010   1.356       .  A
N1009      H1019   1.045       .  S
C1010      C1011   1.394       .  A
C1011      H1017   1.082       .  S
N1012      C1013   1.355       .  A
N1012      H1020   1.045       .  S
C1013      C1014   1.396       .  A
C1014      H1018   1.082       .  S
C1021      C1026   1.384       .  A
C1021      C1022   1.406       .  A
C1021      N1027   1.344       .  A
C1022      C1023   1.405       .  A
C1022      H1033   1.082       .  S
C1023      C1032   1.381       .  A
C1023      C1024   1.385       .  A
C1024      C1025   1.402       .  A
C1024      N1030   1.341       .  A
C1025      C1026   1.400       .  A
C1025      H1034   1.082       .  S
C1026      C1029   1.377       .  A
N1027      C1028   1.356       .  A
N1027      H1037   1.045       .  S
C1028      C1029   1.394       .  A
C1029      H1035   1.082       .  S
N1030      C1031   1.354       .  A
N1030      H1038   1.045       .  S
C1031      C1032   1.397       .  A
C1032      H1036   1.082       .  S
C1039      C1044   1.385       .  A
C1039      C1040   1.401       .  A
C1039      N1045   1.340       .  A
C1040      C1041   1.400       .  A
C1040      H1051   1.082       .  S
C1041      C1050   1.377       .  A
C1041      C1042   1.384       .  A
C1042      C1043   1.406       .  A
C1042      N1048   1.344       .  A
C1043      C1044   1.405       .  A
C1043      H1052   1.082       .  S
C1044      C1047   1.382       .  A
N1045      C1046   1.354       .  A
N1045      H1055   1.045       .  S
C1046      C1047   1.397       .  A
C1047      H1053   1.082       .  S
N1048      C1049   1.357       .  A
N1048      H1056   1.045       .  S
C1049      C1050   1.393       .  A
C1050      H1054   1.082       .  S
C1057      C1062   1.385   1_565  A
C1057      C1058   1.401       .  A
C1057      N1063   1.342       .  A
C1058      C1059   1.400       .  A
C1058      H1069   1.082       .  S
C1059      C1068   1.376       .  A
C1059      C1060   1.385   1_565  A
C1060      C1061   1.403       .  A
C1060      N1066   1.343       .  A
C1061      C1062   1.403       .  A
C1061      H1070   1.082       .  S
C1062      C1065   1.377       .  A
N1063      C1064   1.354       .  A
N1063      H1073   1.044       .  S
C1064      C1065   1.395   1_565  A
C1065      H1071   1.082       .  S
N1066      C1067   1.356   1_545  A
N1066      H1074   1.044       .  S
C1067      C1068   1.393       .  A
C1068      H1072   1.082       .  S
C1075      C1080   1.385   1_565  A
C1075      C1076   1.404       .  A
C1075      N1081   1.345       .  A
C1076      C1077   1.404       .  A
C1076      H1087   1.082       .  S
C1077      C1086   1.379       .  A
C1077      C1078   1.385   1_565  A
C1078      C1079   1.403       .  A
C1078      N1084   1.343       .  A
C1079      C1080   1.402       .  A
C1079      H1088   1.082       .  S
C1080      C1083   1.378       .  A
N1081      C1082   1.355       .  A
N1081      H1091   1.044       .  S
C1082      C1083   1.395   1_565  A
C1083      H1089   1.082       .  S
N1084      C1085   1.355   1_545  A
N1084      H1092   1.044       .  S
C1085      C1086   1.395       .  A
C1086      H1090   1.082       .  S
C1093      C1098   1.385   1_655  A
C1093      C1094   1.403       .  A
C1093      N1099   1.344       .  A
C1094      C1095   1.402       .  A
C1094      H1105   1.082       .  S
C1095      C1104   1.378       .  A
C1095      C1096   1.385   1_655  A
C1096      C1097   1.403       .  A
C1096      N1102   1.343       .  A
C1097      C1098   1.403       .  A
C1097      H1106   1.082       .  S
C1098      C1101   1.378       .  A
N1099      C1100   1.356   1_655  A
N1099      H1109   1.044       .  S
C1100      C1101   1.395       .  A
C1101      H1107   1.082       .  S
N1102      C1103   1.355       .  A
N1102      H1110   1.044       .  S
C1103      C1104   1.395   1_455  A
C1104      H1108   1.082       .  S
C1111      C1116   1.385   1_655  A
C1111      C1112   1.402       .  A
C1111      N1117   1.341       .  A
C1112      C1113   1.400       .  A
C1112      H1123   1.082       .  S
C1113      C1122   1.377       .  A
C1113      C1114   1.385   1_655  A
C1114      C1115   1.404       .  A
C1114      N1120   1.343       .  A
C1115      C1116   1.403       .  A
C1115      H1124   1.082       .  S
C1116      C1119   1.380       .  A
N1117      C1118   1.354   1_655  A
N1117      H1127   1.044       .  S
C1118      C1119   1.395       .  A
C1119      H1125   1.082       .  S
N1120      C1121   1.355       .  A
N1120      H1128   1.044       .  S
C1121      C1122   1.393   1_455  A
C1122      H1126   1.082       .  S
C1129      C1134   1.385   1_455  A
C1129      C1130   1.403       .  A
C1129      N1135   1.345       .  A
C1130      C1131   1.403       .  A
C1130      H1141   1.082       .  S
C1131      C1140   1.377       .  A
C1131      C1132   1.385   1_455  A
C1132      C1133   1.403       .  A
C1132      N1138   1.344       .  A
C1133      C1134   1.402       .  A
C1133      H1142   1.082       .  S
C1134      C1137   1.376       .  A
N1135      C1136   1.355       .  A
N1135      H1145   1.045       .  S
C1136      C1137   1.395   1_455  A
C1137      H1143   1.082       .  S
N1138      C1139   1.355   1_655  A
N1138      H1146   1.045       .  S
C1139      C1140   1.395       .  A
C1140      H1144   1.082       .  S
C1147      C1152   1.385   1_455  A
C1147      C1148   1.402       .  A
C1147      N1153   1.342       .  A
C1148      C1149   1.401       .  A
C1148      H1159   1.082       .  S
C1149      C1158   1.376       .  A
C1149      C1150   1.385   1_455  A
C1150      C1151   1.405       .  A
C1150      N1156   1.344       .  A
C1151      C1152   1.404       .  A
C1151      H1160   1.082       .  S
C1152      C1155   1.379       .  A
N1153      C1154   1.354       .  A
N1153      H1163   1.045       .  S
C1154      C1155   1.396   1_455  A
C1155      H1161   1.082       .  S
N1156      C1157   1.356   1_655  A
N1156      H1164   1.046       .  S
C1157      C1158   1.394       .  A
C1158      H1162   1.082       .  S
C1165      C1170   1.384   1_445  A
C1165      C1166   1.404       .  A
C1165      N1171   1.344       .  A
C1166      C1167   1.403       .  A
C1166      H1177   1.082       .  S
C1167      C1176   1.379       .  A
C1167      C1168   1.385   1_445  A
C1168      C1169   1.403       .  A
C1168      N1174   1.343       .  A
C1169      C1170   1.402       .  A
C1169      H1178   1.082       .  S
C1170      C1173   1.378       .  A
N1171      C1172   1.356       .  A
N1171      H1181   1.044       .  S
C1172      C1173   1.394   1_445  A
C1173      H1179   1.082       .  S
N1174      C1175   1.355   1_665  A
N1174      H1182   1.044       .  S
C1175      C1176   1.396       .  A
C1176      H1180   1.082       .  S
C1183      C1188   1.385   1_445  A
C1183      C1184   1.402       .  A
C1183      N1189   1.342       .  A
C1184      C1185   1.401       .  A
C1184      H1195   1.082       .  S
C1185      C1194   1.376       .  A
C1185      C1186   1.385   1_445  A
C1186      C1187   1.404       .  A
C1186      N1192   1.344       .  A
C1187      C1188   1.403       .  A
C1187      H1196   1.082       .  S
C1188      C1191   1.379       .  A
N1189      C1190   1.355   1_445  A
N1189      H1199   1.044       .  S
C1190      C1191   1.395       .  A
C1191      H1197   1.082       .  S
N1192      C1193   1.355   1_655  A
N1192      H1200   1.044       .  S
C1193      C1194   1.393   1_565  A
C1194      H1198   1.082       .  S
