geometry optimzed in LAMMPS
_audit_creation_date              2020-12-01 
_audit_creation_method            'lammps2cif' 
_symmetry_space_group_name_H-M    'P1' 
_symmetry_Int_Tables_number       1 
_symmetry_cell_setting            triclinic 
loop_ 
_symmetry_equiv_pos_as_xyz 
  x,y,z 
_cell_length_a                    35.66612476 
_cell_length_b                    35.231128183978335 
_cell_length_c                    91.27881095569036 
_cell_angle_alpha                 90.22833313131376 
_cell_angle_beta                  90.04650042305025 
_cell_angle_gamma                 121.34595027893975 
loop_ 
_atom_site_label 
_atom_site_type_symbol 
_atom_site_fract_x 
_atom_site_fract_y 
_atom_site_fract_z 
_atom_site_charge 
O1          O  0.55018770  0.04668031  0.98618849    -0.73100
O2          O  0.50505027  0.95280325  0.01655438    -0.74100
O3          O  0.50329169  0.95217070  0.98535853    -0.62700
O4          O  0.54957030  0.04733394  0.01741166    -0.71100
O5          O  0.48541870  0.04315171  0.01702808    -0.70600
O6          O  0.44076242  0.95132249  0.98576634    -0.61900
O7          O  0.44097343  0.94878515  0.01688266    -0.74400
O8          O  0.48759699  0.04568947  0.98575126    -0.73200
Cu9        Cu  0.52924024  0.99986931  0.00138221     1.04600
Cu10       Cu  0.46152541  0.99718186  0.00136952     1.04300
C11         C  0.52672741  0.06108488  0.98099399     0.93100
C12         C  0.46622859  0.93562693  0.02157799     0.92300
C13         C  0.46419625  0.93693827  0.98052218     0.84400
C14         C  0.52400925  0.05991978  0.02228947     0.90700
N15         N  0.24347519  0.63557137  0.85510848    -0.27400
N16         N  0.20657981  0.62313368  0.86216057    -0.35300
C17         C  0.21643806  0.64111787  0.87571208     0.00900
C18         C  0.26191706  0.66616785  0.87726577     0.06900
C19         C  0.27770100  0.66159600  0.86389815    -0.06200
H20         H  0.19215740  0.63664990  0.88371195     0.07600
H21         H  0.31154142  0.67672270  0.86056069     0.08800
Cu22       Cu  0.14521956  0.58373092  0.85234916     0.44200
Cu23       Cu  0.24605563  0.61863800  0.83359116     0.42000
Cu24       Cu  0.14559209  0.55944181  0.81290112     0.43900
N25         N  0.08896591  0.54707026  0.83954004    -0.34800
N26         N  0.08895667  0.53980961  0.82528393    -0.29100
C27         C  0.04704196  0.51627855  0.82051508    -0.05200
C28         C  0.01945896  0.50780296  0.83233404     0.07000
C29         C  0.04716737  0.52773504  0.84419762     0.00800
H30         H  0.03734916  0.50530461  0.80932188     0.08500
H31         H  0.03767970  0.52854359  0.85539488     0.07600
N32         N  0.20724751  0.57905085  0.80406947    -0.36300
N33         N  0.24370863  0.60056821  0.81188809    -0.28400
C34         C  0.27789919  0.60763255  0.80364164    -0.03700
C35         C  0.26268013  0.58968255  0.78980785     0.04900
C36         C  0.21747435  0.57178964  0.79053000     0.03000
H37         H  0.31129130  0.62408894  0.80764212     0.08100
H38         H  0.19358544  0.55428566  0.78195232     0.07000
N39         N  0.74602175  0.35556211  0.85446791    -0.27400
N40         N  0.78283904  0.36750469  0.86157812    -0.35300
C41         C  0.77271305  0.34878154  0.87496606     0.00900
C42         C  0.72721719  0.32388461  0.87636345     0.06900
C43         C  0.71163670  0.32921799  0.86307663    -0.06200
H44         H  0.79681183  0.35286902  0.88301890     0.07600
H45         H  0.67778798  0.31427010  0.85968339     0.08800
Cu46       Cu  0.84470716  0.40751346  0.85213484     0.44200
Cu47       Cu  0.74379646  0.37366495  0.83309949     0.42000
Cu48       Cu  0.84519055  0.43228705  0.81298263     0.43900
N49         N  0.90149449  0.44402169  0.83956132    -0.34800
N50         N  0.90148491  0.45103361  0.82531580    -0.29100
C51         C  0.94327428  0.47410843  0.82054588    -0.05200
C52         C  0.97096886  0.48266672  0.83235293     0.07000
C53         C  0.94338255  0.46322673  0.84422982     0.00800
H54         H  0.95279883  0.48484731  0.80936437     0.08500
H55         H  0.95302756  0.46271116  0.85543117     0.07600
N56         N  0.78443818  0.41471784  0.80402938    -0.36300
N57         N  0.74752879  0.39318598  0.81154085    -0.28400
C58         C  0.71400187  0.38696324  0.80305044    -0.03700
C59         C  0.73033095  0.40557705  0.78945545     0.04900
C60         C  0.77529116  0.42303310  0.79050904     0.03000
H61         H  0.68029485  0.37069943  0.80667477     0.08100
H62         H  0.79960494  0.44034780  0.78208480     0.07000
O63         O  0.04715406  0.55792582  0.34843486    -0.73100
O64         O  0.95492342  0.51310411  0.31763313    -0.74100
O65         O  0.95368003  0.51140626  0.34890619    -0.62700
O66         O  0.04812627  0.55724923  0.31730134    -0.71100
O67         O  0.04303063  0.49184971  0.31766080    -0.70600
O68         O  0.95128510  0.44730856  0.34828296    -0.61900
O69         O  0.95007885  0.44780432  0.31719234    -0.74400
O70         O  0.04471602  0.49380350  0.34877026    -0.73200
Cu71       Cu  0.00104360  0.53716508  0.33308190     1.04600
Cu72       Cu  0.99714433  0.46798142  0.33298556     1.04300
C73         C  0.06101305  0.53371461  0.35348099     0.93100
C74         C  0.93792013  0.47390366  0.31239741     0.92300
C75         C  0.93766726  0.47156057  0.35352959     0.84400
C76         C  0.06025138  0.53100774  0.31252474     0.90700
N77         N  0.64681349  0.40680391  0.18786854    -0.27400
N78         N  0.63166020  0.42742109  0.19576855    -0.35300
C79         C  0.64887806  0.43424550  0.20937129     0.00900
C80         C  0.67597286  0.41675742  0.21003955     0.06900
C81         C  0.67373214  0.39977958  0.19613944    -0.06200
H82         H  0.64186265  0.45040211  0.21811301     0.07600
H83         H  0.69070912  0.38380835  0.19217282     0.08800
Cu84       Cu  0.58870671  0.44519954  0.18715037     0.44200
Cu85       Cu  0.63074483  0.38853596  0.16618361     0.42000
Cu86       Cu  0.56460549  0.42153712  0.14757206     0.43900
N87         N  0.55109043  0.46313743  0.17477106    -0.34800
N88         N  0.54435462  0.45647228  0.16046918    -0.29100
C89         C  0.52121798  0.47452604  0.15584523    -0.05200
C90         C  0.51242656  0.49287818  0.16778729     0.07000
C91         C  0.53166726  0.48492206  0.17961093     0.00800
H92         H  0.51103898  0.47377894  0.14462675     0.08500
H93         H  0.53229737  0.49501719  0.19086045     0.07600
N94         N  0.58521409  0.38200838  0.13778544    -0.36300
N95         N  0.61001423  0.37030884  0.14479224    -0.28400
C96         C  0.61707008  0.34379199  0.13611027    -0.03700
C97         C  0.59551778  0.33813368  0.12290220     0.04900
C98         C  0.57557293  0.36294105  0.12439193     0.03000
H99         H  0.63542139  0.32865281  0.13942428     0.08100
H100        H  0.55522046  0.36658130  0.11642726     0.07000
N101        N  0.36045044  0.60885606  0.18991292    -0.27400
N102        N  0.37403061  0.58586921  0.19718960    -0.35300
C103        C  0.35707530  0.57812800  0.21080784     0.00900
C104        C  0.33167315  0.59739175  0.21216157     0.06900
C105        C  0.33483237  0.61658407  0.19863539    -0.06200
H106        H  0.36251853  0.55943728  0.21901083     0.07600
H107        H  0.31865015  0.63376873  0.19512682     0.08800
Cu108      Cu  0.41348002  0.56510441  0.18764585     0.44200
Cu109      Cu  0.37473850  0.62669552  0.16816854     0.42000
Cu110      Cu  0.43610358  0.58864493  0.14832428     0.43900
N111        N  0.44971308  0.54608114  0.17502782    -0.34800
N112        N  0.45646367  0.55309620  0.16077010    -0.29100
C113        C  0.47946200  0.53496600  0.15600839    -0.05200
C114        C  0.48804983  0.51617307  0.16783894     0.07000
C115        C  0.46884535  0.52393954  0.17971265     0.00800
H116        H  0.48975544  0.53602485  0.14479715     0.08500
H117        H  0.46824309  0.51369626  0.19090867     0.07600
N118        N  0.41454941  0.62789802  0.13901848    -0.36300
N119        N  0.39152808  0.64124295  0.14636455    -0.28400
C120        C  0.38294815  0.66643689  0.13762031    -0.03700
C121        C  0.40176688  0.66955542  0.12406857     0.04900
C122        C  0.42160771  0.64467602  0.12538091     0.03000
H123        H  0.36544640  0.68237981  0.14106373     0.08100
H124        H  0.43997775  0.63926199  0.11708167     0.07000
O125        O  0.48889636  0.44343611  0.65149889    -0.73100
O126        O  0.44240059  0.48656378  0.68264487    -0.74100
O127        O  0.44351842  0.49027982  0.65139971    -0.62700
O128        O  0.49026395  0.44233212  0.68261163    -0.71100
O129        O  0.55234960  0.50777278  0.68266537    -0.70600
O130        O  0.50732437  0.55396807  0.65224154    -0.61900
O131        O  0.50458186  0.55186877  0.68341880    -0.74400
O132        O  0.55267998  0.50723391  0.65155393    -0.73200
Cu133      Cu  0.46405725  0.46342050  0.66701332     1.04600
Cu134      Cu  0.53138234  0.53243137  0.66747656     1.04300
C135        C  0.52777089  0.46764783  0.64658967     0.93100
C136        C  0.46548193  0.52550247  0.68808826     0.92300
C137        C  0.46878784  0.53024662  0.64691964     0.84400
C138        C  0.52925748  0.46830787  0.68754116     0.90700
N139        N  0.64166615  0.25237762  0.47897103    -0.27400
N140        N  0.62882160  0.21494694  0.47177243    -0.35300
C141        C  0.64716634  0.22486439  0.45836078     0.00900
C142        C  0.67266571  0.27083555  0.45705110     0.06900
C143        C  0.66813164  0.28698662  0.47037544    -0.06200
H144        H  0.64258096  0.20031865  0.45024738     0.07600
H145        H  0.68408372  0.32133114  0.47383362     0.08800
Cu146      Cu  0.58851117  0.15251417  0.48109883     0.44200
Cu147      Cu  0.62547082  0.25515934  0.50051001     0.42000
Cu148      Cu  0.56416837  0.15225957  0.52019247     0.43900
N149        N  0.55156434  0.09512968  0.49352420    -0.34800
N150        N  0.54426326  0.09516696  0.50774445    -0.29100
C151        C  0.52121025  0.05288712  0.51247948    -0.05200
C152        C  0.51315524  0.02487666  0.50067771     0.07000
C153        C  0.53271206  0.05274811  0.48883312     0.00800
H154        H  0.51060592  0.04327063  0.52366365     0.08500
H155        H  0.53382750  0.04298678  0.47766583     0.07600
N156        N  0.58481450  0.21412997  0.52952521    -0.36300
N157        N  0.60742552  0.25163989  0.52219229    -0.28400
C158        C  0.61507857  0.28579836  0.53088446    -0.03700
C159        C  0.59622212  0.26923247  0.54443092     0.04900
C160        C  0.57725617  0.22349153  0.54313505     0.03000
H161        H  0.63213123  0.32003289  0.52737855     0.08100
H162        H  0.55902826  0.19871044  0.55139283     0.07000
N163        N  0.35936900  0.74811740  0.47906212    -0.27400
N164        N  0.37388481  0.78568617  0.47187623    -0.35300
C165        C  0.35601825  0.77632852  0.45836764     0.00900
C166        C  0.32899511  0.73053409  0.45693655     0.06900
C167        C  0.33210046  0.71387149  0.47032725    -0.06200
H168        H  0.36222412  0.80118901  0.45023762     0.07600
H169        H  0.31501790  0.67947423  0.47367061     0.08800
Cu170      Cu  0.41573349  0.84779376  0.48119624     0.44200
Cu171      Cu  0.37562953  0.74515309  0.50065696     0.42000
Cu172      Cu  0.43709640  0.84883900  0.52050714     0.43900
N173        N  0.45170507  0.90538838  0.49364805    -0.34800
N174        N  0.45768529  0.90584101  0.50797970    -0.29100
C175        C  0.48008605  0.94834494  0.51268831    -0.05200
C176        C  0.48911583  0.97587411  0.50074191     0.07000
C177        C  0.47076498  0.94752751  0.48885782     0.00800
H178        H  0.48969733  0.95846014  0.52394671     0.08500
H179        H  0.47058237  0.95678382  0.47758372     0.07600
N180        N  0.41651928  0.78695950  0.52981595    -0.36300
N181        N  0.39422625  0.74929693  0.52240358    -0.28400
C182        C  0.38657347  0.71534338  0.53111050    -0.03700
C183        C  0.40491972  0.73208701  0.54479229     0.04900
C184        C  0.42370547  0.77783075  0.54350000     0.03000
H185        H  0.36943969  0.68105853  0.52754869     0.08100
H186        H  0.44158227  0.80284322  0.55182391     0.07000
C187        C  0.54297352  0.44864615  0.63515856    -0.03500
C188        C  0.51467312  0.40450238  0.63042457    -0.09300
C189        C  0.52773520  0.38567192  0.61964293    -0.16900
C190        C  0.56931511  0.41047135  0.61334895     0.25200
C191        C  0.59803184  0.45439019  0.61798919    -0.18600
C192        C  0.58497520  0.47343403  0.62886438    -0.07500
C193        C  0.58134898  0.39039521  0.60195192    -0.13900
C194        C  0.58716400  0.37046193  0.59231440    -0.13700
C195        C  0.59075363  0.34483922  0.58064843     0.25100
C196        C  0.62109053  0.36620785  0.56938538    -0.19100
C197        C  0.62325381  0.34153658  0.55773370    -0.07500
C198        C  0.59502440  0.29503072  0.55714846    -0.03600
C199        C  0.56501670  0.27376292  0.56864059    -0.08900
C200        C  0.56286382  0.29855538  0.58027909    -0.16600
H201        H  0.48212019  0.38428010  0.63502926     0.11600
H202        H  0.50523203  0.35175286  0.61615262     0.10900
H203        H  0.63036732  0.47395570  0.61316116     0.10800
H204        H  0.60749964  0.50738783  0.63227957     0.11300
H205        H  0.64280873  0.40196995  0.56953783     0.11400
H206        H  0.64711744  0.35908009  0.54919652     0.11400
H207        H  0.54260602  0.23817899  0.56852873     0.11500
H208        H  0.53905190  0.28163896  0.58891289     0.10300
C209        C  0.40546000  0.70644565  0.55767798    -0.03500
C210        C  0.38114581  0.65959045  0.55746146    -0.09300
C211        C  0.38299903  0.63531940  0.56924383    -0.16900
C212        C  0.40902653  0.65729262  0.58149438     0.25200
C213        C  0.43269383  0.70384787  0.58198355    -0.18600
C214        C  0.43089714  0.72825740  0.57019526    -0.07500
C215        C  0.41296253  0.63209751  0.59321891    -0.13900
C216        C  0.41870095  0.61184662  0.60274100    -0.13700
C217        C  0.43002247  0.59061313  0.61394971     0.25100
C218        C  0.47167229  0.61419860  0.62037569    -0.19100
C219        C  0.48381556  0.59431513  0.63104204    -0.07500
C220        C  0.45454226  0.55027448  0.63554451    -0.03600
C221        C  0.41258801  0.52660932  0.62905697    -0.08900
C222        C  0.40044015  0.54672193  0.61830705    -0.16600
H223        H  0.36079486  0.64137320  0.54816848     0.11600
H224        H  0.36452625  0.59933998  0.56870303     0.10900
H225        H  0.45309270  0.72132982  0.59138937     0.10800
H226        H  0.45008344  0.76414675  0.57082897     0.11300
H227        H  0.49491382  0.64802572  0.61710168     0.11400
H228        H  0.51643759  0.61367398  0.63575152     0.11400
H229        H  0.38934506  0.49273996  0.63225502     0.11500
H230        H  0.36806692  0.52800990  0.61337265     0.10300
C231        C  0.70096111  0.29730823  0.44460761    -0.03500
C232        C  0.71406424  0.27763670  0.43394073    -0.09300
C233        C  0.74218794  0.30314231  0.42257901    -0.16900
C234        C  0.75742620  0.34859793  0.42164260     0.25200
C235        C  0.74417300  0.36835905  0.43209922    -0.18600
C236        C  0.71619376  0.34296624  0.44349960    -0.07500
C237        C  0.78695305  0.37483570  0.41002758    -0.13900
C238        C  0.81198361  0.39482576  0.40013764    -0.13700
C239        C  0.84217436  0.41471357  0.38808593     0.25100
C240        C  0.86195348  0.46008777  0.38488268    -0.19100
C241        C  0.89240927  0.47889329  0.37340710    -0.07500
C242        C  0.90352107  0.45244231  0.36509353    -0.03600
C243        C  0.88273440  0.40678525  0.36827890    -0.08900
C244        C  0.85242371  0.38817663  0.37964629    -0.16600
H245        H  0.70333233  0.24273558  0.43450265     0.11600
H246        H  0.75228535  0.28745506  0.41457442     0.10900
H247        H  0.75561786  0.40346325  0.43148534     0.10800
H248        H  0.70645969  0.35915994  0.45140288     0.11300
H249        H  0.85422951  0.48100733  0.39134862     0.11400
H250        H  0.90783260  0.51407593  0.37123952     0.11400
H251        H  0.89021000  0.38527104  0.36205879     0.11500
H252        H  0.83732898  0.35308308  0.38196277     0.10300
C253        C  0.90426602  0.45970513  0.30069250    -0.03500
C254        C  0.87983553  0.41537920  0.29572490    -0.09300
C255        C  0.84778644  0.40296617  0.28476908    -0.16900
C256        C  0.84003101  0.43473569  0.27865497     0.25200
C257        C  0.86444804  0.47882111  0.28348380    -0.18600
C258        C  0.89618627  0.49120192  0.29439213    -0.07500
C259        C  0.80746782  0.42310598  0.26736011    -0.13900
C260        C  0.78192645  0.41816812  0.25777625    -0.13700
C261        C  0.75360586  0.41630470  0.24614540     0.25100
C262        C  0.73651573  0.44421505  0.24650862    -0.19100
C263        C  0.71080062  0.44410016  0.23487972    -0.07500
C264        C  0.70201729  0.41615387  0.22266678    -0.03600
C265        C  0.71900654  0.38789788  0.22250480    -0.08900
C266        C  0.74457680  0.38800397  0.23414427    -0.16600
H267        H  0.88527077  0.39040846  0.30035468     0.11600
H268        H  0.82909225  0.36867372  0.28108662     0.10900
H269        H  0.85892110  0.50371207  0.27881597     0.10800
H270        H  0.91451240  0.52569476  0.29786926     0.11300
H271        H  0.74352087  0.46651242  0.25571312     0.11400
H272        H  0.69857510  0.46644106  0.23535171     0.11400
H273        H  0.71257810  0.36551918  0.21340612     0.11500
H274        H  0.75764048  0.36631878  0.23371063     0.10300
C275        C  0.09423248  0.54481548  0.30100650    -0.03500
C276        C  0.11790885  0.58857369  0.29565596    -0.09300
C277        C  0.15039534  0.60046224  0.28494413    -0.16900
C278        C  0.15940675  0.56874660  0.27948194     0.25200
C279        C  0.13571018  0.52521826  0.28468122    -0.18600
C280        C  0.10352009  0.51335234  0.29532429    -0.07500
C281        C  0.19269784  0.58000728  0.26853515    -0.13900
C282        C  0.21930730  0.58572438  0.25927988    -0.13700
C283        C  0.24941192  0.59014101  0.24791977     0.25100
C284        C  0.25929791  0.62033437  0.23654394    -0.19100
C285        C  0.28671259  0.62324756  0.22511155    -0.07500
C286        C  0.30464879  0.59583790  0.22481730    -0.03600
C287        C  0.29522349  0.56614282  0.23647192    -0.08900
C288        C  0.26769796  0.56327328  0.24791577    -0.16600
H289        H  0.11154814  0.61352317  0.29980136     0.11600
H290        H  0.16851526  0.63432600  0.28096100     0.10900
H291        H  0.14220620  0.50034163  0.28052327     0.10800
H292        H  0.08589001  0.47928429  0.29911282     0.11300
H293        H  0.24542194  0.64132747  0.23641793     0.11400
H294        H  0.29357502  0.64694259  0.21648728     0.11400
H295        H  0.30822086  0.54444080  0.23662158     0.11500
H296        H  0.26018840  0.53963702  0.25665665     0.10300
C297        C  0.09616865  0.55297391  0.36478745    -0.03500
C298        C  0.11462230  0.59770927  0.36905749    -0.09300
C299        C  0.14705986  0.61653514  0.37985992    -0.16900
C300        C  0.16176767  0.59112586  0.38663872     0.25200
C301        C  0.14416200  0.54669801  0.38237880    -0.18600
C302        C  0.11155291  0.52768077  0.37148420    -0.07500
C303        C  0.19377879  0.61089158  0.39827269    -0.13900
C304        C  0.21925270  0.63037363  0.40817737    -0.13700
C305        C  0.24804936  0.65567742  0.42015103     0.25100
C306        C  0.25821055  0.63452867  0.43102108    -0.19100
C307        C  0.28473649  0.65889427  0.44292825    -0.07500
C308        C  0.30159989  0.70488642  0.44412901    -0.03600
C309        C  0.29150345  0.72591010  0.43306772    -0.08900
C310        C  0.26484459  0.70144275  0.42119842    -0.16600
H311        H  0.10380934  0.61833773  0.36410832     0.11600
H312        H  0.16034771  0.65086722  0.38304335     0.10900
H313        H  0.15529443  0.52664660  0.38757239     0.10800
H314        H  0.09813644  0.49326784  0.36842132     0.11300
H315        H  0.24537625  0.59912555  0.43035428     0.11400
H316        H  0.29211187  0.64164637  0.45113884     0.11400
H317        H  0.30350736  0.76111138  0.43367815     0.11500
H318        H  0.25698944  0.71816493  0.41290315     0.10300
C319        C  0.54882225  0.45394445  0.69898484    -0.03500
C320        C  0.52793989  0.40971484  0.70387535    -0.09300
C321        C  0.54778229  0.39751986  0.71467239    -0.16900
C322        C  0.58853513  0.42941137  0.72067827     0.25200
C323        C  0.60930077  0.47330704  0.71584929    -0.18600
C324        C  0.58975415  0.48546749  0.70512116    -0.07500
C325        C  0.60949407  0.41816575  0.73192827    -0.13900
C326        C  0.62986360  0.41319691  0.74152736    -0.13700
C327        C  0.65544043  0.41030798  0.75324051     0.25100
C328        C  0.63463884  0.37903834  0.76436407    -0.19100
C329        C  0.65909021  0.37730950  0.77604305    -0.07500
C330        C  0.70484696  0.40684439  0.77678357    -0.03600
C331        C  0.72560677  0.43787810  0.76545920    -0.08900
C332        C  0.70100665  0.43966958  0.75379960    -0.16600
H333        H  0.49652704  0.38468592  0.69934416     0.11600
H334        H  0.53134738  0.36334970  0.71834724     0.10900
H335        H  0.64071989  0.49830923  0.72041825     0.10800
H336        H  0.60683304  0.51986959  0.70168103     0.11300
H337        H  0.59943579  0.35617303  0.76407325     0.11400
H338        H  0.64203305  0.35264558  0.78445301     0.11400
H339        H  0.76065137  0.46131049  0.76573175     0.11500
H340        H  0.71747977  0.46424069  0.74529063     0.10300
C341        C  0.28915995  0.58853522  0.77733730    -0.03500
C342        C  0.26886305  0.56556880  0.76426223    -0.09300
C343        C  0.29386151  0.56330773  0.75282182    -0.16900
C344        C  0.33951880  0.58400503  0.75421288     0.25200
C345        C  0.36008137  0.60745117  0.76705791    -0.18600
C346        C  0.33522384  0.60978475  0.77849460    -0.07500
C347        C  0.36503983  0.57982848  0.74271501    -0.13900
C348        C  0.38522247  0.57395180  0.73324080    -0.13700
C349        C  0.40631763  0.56270598  0.72196671     0.25100
C350        C  0.38481603  0.51935494  0.71640669    -0.19100
C351        C  0.40432736  0.50761577  0.70547525    -0.07500
C352        C  0.44591701  0.53902359  0.69985483    -0.03600
C353        C  0.46762008  0.58257110  0.70555397    -0.08900
C354        C  0.44786110  0.59432859  0.71653979    -0.16600
H355        H  0.23367470  0.54882015  0.76288611     0.11600
H356        H  0.27745782  0.54492632  0.74294231     0.10900
H357        H  0.39533995  0.62358284  0.76830835     0.10800
H358        H  0.35238299  0.62807765  0.78825896     0.11300
H359        H  0.35279504  0.49452024  0.72051431     0.11400
H360        H  0.38664201  0.47370069  0.70142492     0.11400
H361        H  0.49960952  0.60748903  0.70147926     0.11500
H362        H  0.46493374  0.62804738  0.72077540     0.10300
C363        C  0.40233054  0.69577710  0.11130215    -0.03500
C364        C  0.43565527  0.71056239  0.10072849    -0.09300
C365        C  0.43712562  0.73677063  0.08900542    -0.16900
C366        C  0.40516126  0.74827608  0.08759970     0.25200
C367        C  0.37151115  0.73320399  0.09795960    -0.18600
C368        C  0.37014832  0.70723107  0.10975472    -0.07500
C369        C  0.40802566  0.77681349  0.07580613    -0.13900
C370        C  0.41377354  0.80235174  0.06605170    -0.13700
C371        C  0.42565355  0.83479939  0.05461749     0.25100
C372        C  0.39583591  0.84628860  0.04943791    -0.19100
C373        C  0.40863164  0.87899082  0.03862815    -0.07500
C374        C  0.45145091  0.90052461  0.03289394    -0.03600
C375        C  0.48089409  0.88833318  0.03812917    -0.08900
C376        C  0.46810188  0.85584834  0.04887788    -0.16600
H377        H  0.46115824  0.70277256  0.10167752     0.11600
H378        H  0.46351906  0.74847981  0.08111410     0.10900
H379        H  0.34659858  0.74188041  0.09700658     0.10800
H380        H  0.34383230  0.69605142  0.11763057     0.11300
H381        H  0.36282980  0.83021219  0.05381645     0.11400
H382        H  0.38519817  0.88750856  0.03481484     0.11400
H383        H  0.51413650  0.90411964  0.03398357     0.11500
H384        H  0.49149782  0.84736064  0.05279290     0.10300
C385        C  0.53802697  0.09395831  0.03406026    -0.03500
C386        C  0.58171324  0.11860399  0.03909516    -0.09300
C387        C  0.59397092  0.15151601  0.04992260    -0.16900
C388        C  0.56270190  0.15995841  0.05584968     0.25200
C389        C  0.51919414  0.13514348  0.05101639    -0.18600
C390        C  0.50696680  0.10254212  0.04024345    -0.07500
C391        C  0.57447066  0.19392831  0.06685506    -0.13900
C392        C  0.58071674  0.22119611  0.07613537    -0.13700
C393        C  0.58559749  0.25224387  0.08744526     0.25100
C394        C  0.55580425  0.26676213  0.08840395    -0.19100
C395        C  0.55939701  0.29537475  0.09975645    -0.07500
C396        C  0.59275973  0.30965701  0.11038229    -0.03600
C397        C  0.62290050  0.29537349  0.10917935    -0.08900
C398        C  0.61933153  0.26692928  0.09780628    -0.16600
H399        H  0.60635003  0.11280888  0.03456989     0.11600
H400        H  0.62781575  0.17048312  0.05361055     0.10900
H401        H  0.49465986  0.14114998  0.05553215     0.10800
H402        H  0.47295255  0.08408546  0.03672636     0.11300
H403        H  0.52940904  0.25550856  0.08047199     0.11400
H404        H  0.53549494  0.30541141  0.10037628     0.11400
H405        H  0.64933437  0.30608040  0.11702937     0.11500
H406        H  0.64262414  0.25603522  0.09718823     0.10300
C407        C  0.28828158  0.69364351  0.89003637    -0.03500
C408        C  0.26781673  0.69899222  0.90239899    -0.09300
C409        C  0.29294801  0.72616610  0.91412350    -0.16900
C410        C  0.33884822  0.74831854  0.91372058     0.25200
C411        C  0.35948649  0.74279374  0.90159205    -0.18600
C412        C  0.33448997  0.71567205  0.88987152    -0.07500
C413        C  0.36476428  0.77803861  0.92546830    -0.13900
C414        C  0.38511885  0.80437335  0.93514348    -0.13700
C415        C  0.40583911  0.83730478  0.94659556     0.25100
C416        C  0.38346972  0.85670841  0.95239707    -0.19100
C417        C  0.40271309  0.88895061  0.96336745    -0.07500
C418        C  0.44491372  0.90259535  0.96879293    -0.03600
C419        C  0.46741626  0.88303657  0.96290731    -0.08900
C420        C  0.44791537  0.85050545  0.95185751    -0.16600
H421        H  0.23250911  0.68278052  0.90299123     0.11600
H422        H  0.27654162  0.73030662  0.92344100     0.10900
H423        H  0.39495013  0.75980994  0.90111866     0.10800
H424        H  0.35168938  0.71238052  0.88067170     0.11300
H425        H  0.35100121  0.84693657  0.94840806     0.11400
H426        H  0.38435536  0.90326636  0.96757936     0.11400
H427        H  0.49988706  0.89278819  0.96684352     0.11500
H428        H  0.46562677  0.83574475  0.94741656     0.10300
C429        C  0.54584151  0.09521820  0.96927912    -0.03500
C430        C  0.52164425  0.11135318  0.96233001    -0.09300
C431        C  0.54040924  0.14226902  0.95087766    -0.16900
C432        C  0.58348717  0.15735663  0.94628229     0.25200
C433        C  0.60770853  0.14177240  0.95327311    -0.18600
C434        C  0.58919158  0.11113176  0.96463153    -0.07500
C435        C  0.60337169  0.18815909  0.93428409    -0.13900
C436        C  0.62344403  0.21308000  0.92432255    -0.13700
C437        C  0.64961633  0.24184240  0.91248701     0.25100
C438        C  0.62985585  0.25215074  0.90120521    -0.19100
C439        C  0.65510224  0.27907554  0.88955985    -0.07500
C440        C  0.70066229  0.29619161  0.88897540    -0.03600
C441        C  0.72027414  0.28590570  0.90044738    -0.08900
C442        C  0.69492181  0.25890110  0.91207711    -0.15100
H443        H  0.48823100  0.09976789  0.96562439     0.11600
H444        H  0.52125037  0.15408866  0.94554505     0.10900
H445        H  0.64099882  0.15308331  0.94985344     0.10800
H446        H  0.60893879  0.09959071  0.96968782     0.11300
H447        H  0.59487399  0.23921299  0.90136562     0.11400
H448        H  0.63873978  0.28646183  0.88105332     0.11400
H449        H  0.75506079  0.29811057  0.90037912     0.11500
H450        H  0.71065677  0.25106017  0.92071075     0.10300
loop_ 
_geom_bond_atom_site_label_1 
_geom_bond_atom_site_label_2 
_geom_bond_distance 
_geom_bond_site_symmetry_2 
_ccdc_geom_bond_type 
O1           Cu9   1.985   1_546  S
O1           C11   1.275       .  A
O2           Cu9   1.986       .  S
O2           C12   1.275       .  A
O3           Cu9   2.044   1_556  S
O3           C13   1.283       .  A
O4           Cu9   2.045   1_545  S
O4           C14   1.283       .  A
O5          Cu10   1.984   1_545  S
O5           C14   1.275       .  A
O6          Cu10   1.981   1_556  S
O6           C13   1.274       .  A
O7          Cu10   2.042       .  S
O7           C12   1.283       .  A
O8          Cu10   2.046   1_546  S
O8           C11   1.283       .  A
Cu9         Cu10   2.367       .  S
C11         C429   1.488       .  S
C12         C374   1.486       .  S
C13         C418   1.485       .  S
C14         C385   1.486       .  S
N15          N16   1.320       .  A
N15          C19   1.343       .  A
N15         Cu23   2.066       .  S
N16          C17   1.348       .  A
N16         Cu22   2.084       .  S
C17          C18   1.393       .  A
C17          H20   1.081       .  S
C18         C407   1.491       .  S
C18          C19   1.388       .  A
C19          H21   1.080       .  S
Cu22         N25   2.085       .  S
Cu23         N33   2.067       .  S
Cu24         N26   2.096       .  S
Cu24         N32   2.095       .  S
N25          N26   1.325       .  A
N25          C29   1.347       .  A
N26          C27   1.348       .  A
C27          C28   1.385       .  A
C27          H30   1.082       .  S
C28          C52   1.477   1_455  S
C28          C29   1.383       .  A
C29          H31   1.082       .  S
N32          N33   1.320       .  A
N32          C36   1.349       .  A
N33          C34   1.343       .  A
C34          C35   1.387       .  A
C34          H37   1.080       .  S
C35         C341   1.493       .  S
C35          C36   1.394       .  A
C36          H38   1.081       .  S
N39          N40   1.321       .  A
N39          C43   1.344       .  A
N39         Cu47   2.069       .  S
N40          C41   1.348       .  A
N40         Cu46   2.092       .  S
C41          C42   1.393       .  A
C41          H44   1.081       .  S
C42         C440   1.491       .  S
C42          C43   1.387       .  A
C43          H45   1.080       .  S
Cu46         N49   2.093       .  S
Cu47         N57   2.069       .  S
Cu48         N50   2.085       .  S
Cu48         N56   2.084       .  S
N49          N50   1.325       .  A
N49          C53   1.348       .  A
N50          C51   1.347       .  A
C51          C52   1.383       .  A
C51          H54   1.082       .  S
C52          C53   1.385       .  A
C53          H55   1.082       .  S
N56          N57   1.321       .  A
N56          C60   1.348       .  A
N57          C58   1.343       .  A
C58          C59   1.385       .  A
C58          H61   1.081       .  S
C59         C330   1.486       .  S
C59          C60   1.390       .  A
C60          H62   1.082       .  S
O63         Cu71   1.985       .  S
O63          C73   1.275       .  A
O64         Cu71   1.987   1_655  S
O64          C74   1.275       .  A
O65         Cu71   2.045   1_655  S
O65          C75   1.283       .  A
O66         Cu71   2.042       .  S
O66          C76   1.283       .  A
O67         Cu72   1.981   1_455  S
O67          C76   1.274       .  A
O68         Cu72   1.982       .  S
O68          C75   1.274       .  A
O69         Cu72   2.037       .  S
O69          C74   1.282       .  A
O70         Cu72   2.040   1_455  S
O70          C73   1.282       .  A
Cu71        Cu72   2.368   1_455  S
C73         C297   1.485       .  S
C74         C253   1.484       .  S
C75         C242   1.485       .  S
C76         C275   1.484       .  S
N77          N78   1.321       .  A
N77          C81   1.342       .  A
N77         Cu85   2.065       .  S
N78          C79   1.349       .  A
N78         Cu84   2.088       .  S
C79          C80   1.392       .  A
C79          H82   1.081       .  S
C80         C264   1.487       .  S
C80          C81   1.385       .  A
C81          H83   1.081       .  S
Cu84         N87   2.088       .  S
Cu85         N95   2.065       .  S
Cu86         N88   2.083       .  S
Cu86         N94   2.082       .  S
N87          N88   1.325       .  A
N87          C91   1.347       .  A
N88          C89   1.346       .  A
C89          C90   1.382       .  A
C89          H92   1.082       .  S
C90         C114   1.474       .  S
C90          C91   1.384       .  A
C91          H93   1.082       .  S
N94          N95   1.320       .  A
N94          C98   1.348       .  A
N95          C96   1.343       .  A
C96          C97   1.386       .  A
C96          H99   1.081       .  S
C97         C396   1.487       .  S
C97          C98   1.391       .  A
C98         H100   1.081       .  S
N101        N102   1.320       .  A
N101        C105   1.342       .  A
N101       Cu109   2.067       .  S
N102        C103   1.348       .  A
N102       Cu108   2.084       .  S
C103        C104   1.391       .  A
C103        H106   1.081       .  S
C104        C286   1.488       .  S
C104        C105   1.386       .  A
C105        H107   1.080       .  S
Cu108       N111   2.084       .  S
Cu109       N119   2.067       .  S
Cu110       N112   2.084       .  S
Cu110       N118   2.083       .  S
N111        N112   1.324       .  A
N111        C115   1.346       .  A
N112        C113   1.347       .  A
C113        C114   1.384       .  A
C113        H116   1.082       .  S
C114        C115   1.383       .  A
C115        H117   1.082       .  S
N118        N119   1.321       .  A
N118        C122   1.347       .  A
N119        C120   1.344       .  A
C120        C121   1.385       .  A
C120        H123   1.081       .  S
C121        C363   1.484       .  S
C121        C122   1.389       .  A
C122        H124   1.081       .  S
O125       Cu133   1.982       .  S
O125        C135   1.275       .  A
O126       Cu133   1.986       .  S
O126        C136   1.275       .  A
O127       Cu133   2.048       .  S
O127        C137   1.283       .  A
O128       Cu133   2.045       .  S
O128        C138   1.283       .  A
O129       Cu134   1.980       .  S
O129        C138   1.274       .  A
O130       Cu134   1.982       .  S
O130        C137   1.274       .  A
O131       Cu134   2.043       .  S
O131        C136   1.283       .  A
O132       Cu134   2.042       .  S
O132        C135   1.283       .  A
Cu133      Cu134   2.367       .  S
C135        C187   1.485       .  S
C136        C352   1.487       .  S
C137        C220   1.487       .  S
C138        C319   1.485       .  S
N139        N140   1.321       .  A
N139        C143   1.343       .  A
N139       Cu147   2.066       .  S
N140        C141   1.347       .  A
N140       Cu146   2.087       .  S
C141        C142   1.391       .  A
C141        H144   1.082       .  S
C142        C231   1.486       .  S
C142        C143   1.386       .  A
C143        H145   1.081       .  S
Cu146       N149   2.088       .  S
Cu147       N157   2.066       .  S
Cu148       N150   2.082       .  S
Cu148       N156   2.082       .  S
N149        N150   1.324       .  A
N149        C153   1.347       .  A
N150        C151   1.347       .  A
C151        C152   1.383       .  A
C151        H154   1.082       .  S
C152        C176   1.475   1_545  S
C152        C153   1.384       .  A
C153        H155   1.082       .  S
N156        N157   1.321       .  A
N156        C160   1.347       .  A
N157        C158   1.343       .  A
C158        C159   1.386       .  A
C158        H161   1.080       .  S
C159        C198   1.486       .  S
C159        C160   1.390       .  A
C160        H162   1.081       .  S
N163        N164   1.321       .  A
N163        C167   1.344       .  A
N163       Cu171   2.073       .  S
N164        C165   1.346       .  A
N164       Cu170   2.080       .  S
C165        C166   1.389       .  A
C165        H168   1.082       .  S
C166        C308   1.486       .  S
C166        C167   1.387       .  A
C167        H169   1.081       .  S
Cu170       N173   2.080       .  S
Cu171       N181   2.073       .  S
Cu172       N174   2.089       .  S
Cu172       N180   2.089       .  S
N173        N174   1.324       .  A
N173        C177   1.346       .  A
N174        C175   1.347       .  A
C175        C176   1.385       .  A
C175        H178   1.082       .  S
C176        C177   1.383       .  A
C177        H179   1.082       .  S
N180        N181   1.321       .  A
N180        C184   1.348       .  A
N181        C182   1.344       .  A
C182        C183   1.388       .  A
C182        H185   1.080       .  S
C183        C209   1.492       .  S
C183        C184   1.392       .  A
C184        H186   1.082       .  S
C187        C188   1.409       .  A
C187        C192   1.408       .  A
C188        C189   1.394       .  A
C188        H201   1.084       .  S
C189        C190   1.396       .  A
C189        H202   1.083       .  S
C190        C191   1.403       .  A
C190        C193   1.441       .  S
C191        C192   1.405       .  A
C191        H203   1.084       .  S
C192        H204   1.082       .  S
C193        C194   1.207       .  T
C194        C195   1.442       .  S
C195        C196   1.398       .  A
C195        C200   1.401       .  A
C196        C197   1.398       .  A
C196        H205   1.083       .  S
C197        C198   1.409       .  A
C197        H206   1.082       .  S
C198        C199   1.407       .  A
C199        C200   1.400       .  A
C199        H207   1.081       .  S
C200        H208   1.084       .  S
C209        C210   1.410       .  A
C209        C214   1.409       .  A
C210        C211   1.399       .  A
C210        H223   1.081       .  S
C211        C212   1.398       .  A
C211        H224   1.083       .  S
C212        C213   1.401       .  A
C212        C215   1.446       .  S
C213        C214   1.402       .  A
C213        H225   1.084       .  S
C214        H226   1.081       .  S
C215        C216   1.210       .  T
C216        C217   1.445       .  S
C217        C218   1.397       .  A
C217        C222   1.404       .  A
C218        C219   1.395       .  A
C218        H227   1.083       .  S
C219        C220   1.410       .  A
C219        H228   1.084       .  S
C220        C221   1.408       .  A
C221        C222   1.406       .  A
C221        H229   1.082       .  S
C222        H230   1.084       .  S
C231        C232   1.407       .  A
C231        C236   1.409       .  A
C232        C233   1.400       .  A
C232        H245   1.083       .  S
C233        C234   1.401       .  A
C233        H246   1.083       .  S
C234        C235   1.399       .  A
C234        C237   1.444       .  S
C235        C236   1.400       .  A
C235        H247   1.084       .  S
C236        H248   1.082       .  S
C237        C238   1.208       .  T
C238        C239   1.443       .  S
C239        C240   1.403       .  A
C239        C244   1.397       .  A
C240        C241   1.405       .  A
C240        H249   1.084       .  S
C241        C242   1.407       .  A
C241        H250   1.082       .  S
C242        C243   1.409       .  A
C243        C244   1.395       .  A
C243        H251   1.084       .  S
C244        H252   1.083       .  S
C253        C254   1.408       .  A
C253        C258   1.408       .  A
C254        C255   1.404       .  A
C254        H267   1.082       .  S
C255        C256   1.403       .  A
C255        H268   1.084       .  S
C256        C257   1.397       .  A
C256        C259   1.442       .  S
C257        C258   1.394       .  A
C257        H269   1.083       .  S
C258        H270   1.084       .  S
C259        C260   1.207       .  T
C260        C261   1.442       .  S
C261        C262   1.401       .  A
C261        C266   1.398       .  A
C262        C263   1.401       .  A
C262        H271   1.084       .  S
C263        C264   1.407       .  A
C263        H272   1.081       .  S
C264        C265   1.409       .  A
C265        C266   1.398       .  A
C265        H273   1.082       .  S
C266        H274   1.083       .  S
C275        C276   1.407       .  A
C275        C280   1.409       .  A
C276        C277   1.405       .  A
C276        H289   1.083       .  S
C277        C278   1.404       .  A
C277        H290   1.084       .  S
C278        C279   1.396       .  A
C278        C281   1.442       .  S
C279        C280   1.394       .  A
C279        H291   1.084       .  S
C280        H292   1.084       .  S
C281        C282   1.208       .  T
C282        C283   1.443       .  S
C283        C284   1.398       .  A
C283        C288   1.401       .  A
C284        C285   1.398       .  A
C284        H293   1.083       .  S
C285        C286   1.409       .  A
C285        H294   1.081       .  S
C286        C287   1.408       .  A
C287        C288   1.402       .  A
C287        H295   1.081       .  S
C288        H296   1.084       .  S
C297        C298   1.409       .  A
C297        C302   1.408       .  A
C298        C299   1.395       .  A
C298        H311   1.084       .  S
C299        C300   1.397       .  A
C299        H312   1.083       .  S
C300        C301   1.403       .  A
C300        C303   1.443       .  S
C301        C302   1.404       .  A
C301        H313   1.084       .  S
C302        H314   1.082       .  S
C303        C304   1.208       .  T
C304        C305   1.443       .  S
C305        C306   1.399       .  A
C305        C310   1.401       .  A
C306        C307   1.400       .  A
C306        H315   1.084       .  S
C307        C308   1.408       .  A
C307        H316   1.082       .  S
C308        C309   1.407       .  A
C309        C310   1.400       .  A
C309        H317   1.082       .  S
C310        H318   1.083       .  S
C319        C320   1.407       .  A
C319        C324   1.409       .  A
C320        C321   1.405       .  A
C320        H333   1.083       .  S
C321        C322   1.404       .  A
C321        H334   1.084       .  S
C322        C323   1.396       .  A
C322        C325   1.442       .  S
C323        C324   1.393       .  A
C323        H335   1.084       .  S
C324        H336   1.083       .  S
C325        C326   1.208       .  T
C326        C327   1.443       .  S
C327        C328   1.398       .  A
C327        C332   1.402       .  A
C328        C329   1.398       .  A
C328        H337   1.083       .  S
C329        C330   1.408       .  A
C329        H338   1.082       .  S
C330        C331   1.407       .  A
C331        C332   1.401       .  A
C331        H339   1.082       .  S
C332        H340   1.084       .  S
C341        C342   1.409       .  A
C341        C346   1.411       .  A
C342        C343   1.402       .  A
C342        H355   1.081       .  S
C343        C344   1.401       .  A
C343        H356   1.084       .  S
C344        C345   1.398       .  A
C344        C347   1.446       .  S
C345        C346   1.400       .  A
C345        H357   1.083       .  S
C346        H358   1.081       .  S
C347        C348   1.210       .  T
C348        C349   1.446       .  S
C349        C350   1.397       .  A
C349        C354   1.404       .  A
C350        C351   1.396       .  A
C350        H359   1.084       .  S
C351        C352   1.409       .  A
C351        H360   1.084       .  S
C352        C353   1.407       .  A
C353        C354   1.405       .  A
C353        H361   1.083       .  S
C354        H362   1.084       .  S
C363        C364   1.406       .  A
C363        C368   1.408       .  A
C364        C365   1.399       .  A
C364        H377   1.082       .  S
C365        C366   1.401       .  A
C365        H378   1.084       .  S
C366        C367   1.400       .  A
C366        C369   1.443       .  S
C367        C368   1.400       .  A
C367        H379   1.083       .  S
C368        H380   1.082       .  S
C369        C370   1.208       .  T
C370        C371   1.443       .  S
C371        C372   1.402       .  A
C371        C376   1.397       .  A
C372        C373   1.404       .  A
C372        H381   1.084       .  S
C373        C374   1.407       .  A
C373        H382   1.082       .  S
C374        C375   1.409       .  A
C375        C376   1.395       .  A
C375        H383   1.084       .  S
C376        H384   1.083       .  S
C385        C386   1.407       .  A
C385        C390   1.409       .  A
C386        C387   1.405       .  A
C386        H399   1.082       .  S
C387        C388   1.403       .  A
C387        H400   1.084       .  S
C388        C389   1.397       .  A
C388        C391   1.444       .  S
C389        C390   1.395       .  A
C389        H401   1.083       .  S
C390        H402   1.084       .  S
C391        C392   1.209       .  T
C392        C393   1.444       .  S
C393        C394   1.401       .  A
C393        C398   1.399       .  A
C394        C395   1.401       .  A
C394        H403   1.084       .  S
C395        C396   1.408       .  A
C395        H404   1.081       .  S
C396        C397   1.408       .  A
C397        C398   1.399       .  A
C397        H405   1.082       .  S
C398        H406   1.083       .  S
C407        C408   1.409       .  A
C407        C412   1.410       .  A
C408        C409   1.401       .  A
C408        H421   1.080       .  S
C409        C410   1.401       .  A
C409        H422   1.084       .  S
C410        C411   1.398       .  A
C410        C413   1.443       .  S
C411        C412   1.399       .  A
C411        H423   1.083       .  S
C412        H424   1.081       .  S
C413        C414   1.208       .  T
C414        C415   1.443       .  S
C415        C416   1.396       .  A
C415        C420   1.404       .  A
C416        C417   1.394       .  A
C416        H425   1.084       .  S
C417        C418   1.409       .  A
C417        H426   1.083       .  S
C418        C419   1.407       .  A
C419        C420   1.405       .  A
C419        H427   1.083       .  S
C420        H428   1.084       .  S
C429        C430   1.408       .  A
C429        C434   1.409       .  A
C430        C431   1.407       .  A
C430        H443   1.083       .  S
C431        C432   1.404       .  A
C431        H444   1.084       .  S
C432        C433   1.397       .  A
C432        C435   1.446       .  S
C433        C434   1.395       .  A
C433        H445   1.084       .  S
C434        H446   1.083       .  S
C435        C436   1.210       .  T
C436        C437   1.446       .  S
C437        C438   1.399       .  A
C437        C442   1.401       .  A
C438        C439   1.401       .  A
C438        H447   1.083       .  S
C439        C440   1.410       .  A
C439        H448   1.082       .  S
C440        C441   1.408       .  A
C441        C442   1.402       .  A
C441        H449   1.081       .  S
C442        H450   1.084       .  S
