geometry optimzed in LAMMPS
_audit_creation_date              2020-12-01 
_audit_creation_method            'lammps2cif' 
_symmetry_space_group_name_H-M    'P1' 
_symmetry_Int_Tables_number       1 
_symmetry_cell_setting            triclinic 
loop_ 
_symmetry_equiv_pos_as_xyz 
  x,y,z 
_cell_length_a                    36.37189585 
_cell_length_b                    36.42794934606483 
_cell_length_c                    26.859021685141194 
_cell_angle_alpha                 88.47012537860864 
_cell_angle_beta                  91.54413614200757 
_cell_angle_gamma                 120.56851794203442 
loop_ 
_atom_site_label 
_atom_site_type_symbol 
_atom_site_fract_x 
_atom_site_fract_y 
_atom_site_fract_z 
_atom_site_charge 
C1          C  0.01526295  0.97592635  0.21811203     0.79900
N2          N  0.97209316  0.95404035  0.21913271    -0.78400
C3          C  0.95075301  0.97544531  0.21791017     0.82300
N4          N  0.97225916  0.01843180  0.21632411    -0.78400
C5          C  0.01527737  0.04021527  0.21522442     0.82400
N6          N  0.03698202  0.01908140  0.21652363    -0.80100
C7          C  0.31013212  0.68930109  0.29298539     0.79900
N8          N  0.35301471  0.70708344  0.29314545    -0.78400
C9          C  0.37017679  0.68221349  0.28733680     0.82300
N10         N  0.34477562  0.63995672  0.28029308    -0.78400
C11         C  0.30193250  0.62234113  0.27997991     0.82400
N12         N  0.28439471  0.64691141  0.28586565    -0.80100
C13         C  0.70850838  0.60564854  0.16094991     0.79900
N14         N  0.70051663  0.56763707  0.18219835    -0.78400
C15         C  0.71073994  0.54149685  0.15756965     0.82300
N16         N  0.72843204  0.55364948  0.11159458    -0.78400
C17         C  0.73611286  0.59113535  0.09020620     0.82400
N18         N  0.72607608  0.61679985  0.11500733    -0.80100
Zn19       Zn  0.17658656  0.88078715  0.28637826     1.49700
Zn20       Zn  0.14625652  0.78252680  0.29837001     1.49400
Zn21       Zn  0.10926380  0.80790582  0.20725261     1.49100
Zn22       Zn  0.20858683  0.84255324  0.21053433     1.49500
O23         O  0.15949862  0.82855327  0.25055887    -1.84500
O24         O  0.18533307  0.87351425  0.36026174    -0.75100
O25         O  0.08371690  0.73506488  0.29847174    -0.74900
O26         O  0.09368982  0.85333830  0.20745397    -0.74400
O27         O  0.16260808  0.80431662  0.36791912    -0.75100
O28         O  0.13078354  0.89433492  0.27236825    -0.74700
O29         O  0.05720100  0.75298727  0.23358587    -0.75300
O30         O  0.19093617  0.81756062  0.14228995    -0.74700
O31         O  0.18505314  0.76067955  0.28540626    -0.75400
O32         O  0.12161260  0.79579793  0.13755327    -0.74800
O33         O  0.23780240  0.81523424  0.24377236    -0.75300
O34         O  0.25140899  0.90581870  0.20250431    -0.75200
O35         O  0.23240635  0.93280642  0.26224504    -0.75000
C36         C  0.17920833  0.84121642  0.38645293     0.76800
C37         C  0.05201510  0.72810195  0.27049076     0.77300
C38         C  0.10262202  0.88331664  0.23771796     0.76200
C39         C  0.15552924  0.80041024  0.11849112     0.76600
C40         C  0.22275363  0.78033934  0.26828923     0.77800
C41         C  0.25783976  0.93777623  0.22755231     0.76800
C42         C  0.39492338  0.10108180  0.15561629     0.79900
N43         N  0.38344446  0.10579303  0.10852826    -0.78400
C44         C  0.40935510  0.14068131  0.08071883     0.82300
N45         N  0.44741380  0.17106375  0.09982975    -0.78400
C46         C  0.45966233  0.16763875  0.14717091     0.82400
N47         N  0.43296865  0.13224875  0.17523961    -0.80100
C48         C  0.88998339  0.59949582  0.35179635     0.79900
N49         N  0.88773710  0.61557439  0.39582846    -0.78400
C50         C  0.85393702  0.59342947  0.42610511     0.82300
N51         N  0.82143301  0.55453053  0.41173286    -0.78400
C52         C  0.82279920  0.53765404  0.36755041     0.82400
N53         N  0.85732901  0.56033137  0.33738484    -0.80100
C54         C  0.66198268  0.32662113  0.31388753     0.45100
H55         H  0.66252853  0.32529602  0.35457563    -0.03900
C56         C  0.66347402  0.33547909  0.21840095     0.45200
H57         H  0.66441065  0.34084939  0.17762595    -0.03900
C58         C  0.61597019  0.30379678  0.29023161    -0.17600
C59         C  0.68375151  0.37477423  0.29662639    -0.17400
C60         C  0.68532687  0.30531905  0.28825078    -0.17700
C61         C  0.61764331  0.30382353  0.23863189    -0.17700
C62         C  0.67983217  0.37827674  0.24572541    -0.17300
C63         C  0.69232238  0.31764833  0.23811625    -0.17600
Zn64       Zn  0.68891238  0.88406604  0.21608026     1.49700
Zn65       Zn  0.69780406  0.81584022  0.29260008     1.49400
Zn66       Zn  0.62967145  0.84478194  0.30381132     1.49100
Zn67       Zn  0.62582479  0.78431246  0.21453049     1.49500
O68         O  0.66128633  0.83255435  0.25672466    -1.84500
O69         O  0.74924038  0.89938346  0.21408325    -0.75100
O70         O  0.68497562  0.80754265  0.36690368    -0.74900
O71         O  0.64604656  0.90721232  0.30880714    -0.74400
O72         O  0.75646765  0.86227910  0.27803708    -0.75100
O73         O  0.68872501  0.93539866  0.24469626    -0.74700
O74         O  0.63523616  0.82542215  0.37163937    -0.75300
O75         O  0.56901159  0.75496218  0.24585998    -0.74700
O76         O  0.69444273  0.76110615  0.26714200    -0.75400
O77         O  0.56885181  0.80745000  0.28739023    -0.74800
O78         O  0.64711566  0.74228076  0.20589023    -0.75300
O79         O  0.61795792  0.80396709  0.14620437    -0.75200
O80         O  0.66241212  0.87420597  0.14712583    -0.75000
C81         C  0.77178722  0.89031963  0.24325089     0.76800
C82         C  0.65751991  0.81112618  0.39165788     0.77300
C83         C  0.67064614  0.93967168  0.28223038     0.76200
C84         C  0.54990820  0.77013920  0.26943174     0.76600
C85         C  0.67400974  0.73645077  0.23103487     0.77800
C86         C  0.63443667  0.84056605  0.12521362     0.76800
C87         C  0.71068809  0.10320486  0.36004591     0.79900
N88         N  0.72881683  0.10613702  0.40549925    -0.78400
C89         C  0.74046949  0.14027601  0.43444559     0.82300
N90         N  0.73433244  0.17229271  0.41778580    -0.78400
C91         C  0.71640131  0.17022848  0.37219152     0.82400
N92         N  0.70437429  0.13535516  0.34315210    -0.80100
C93         C  0.38555758  0.27479635  0.33226377     0.79900
N94         N  0.37308653  0.25832227  0.37863915    -0.78400
C95         C  0.39906890  0.25173884  0.40979616     0.82300
N96         N  0.43813468  0.26130954  0.39403623    -0.78400
C97         C  0.45123507  0.27732249  0.34730743     0.82400
N98         N  0.42500955  0.28459889  0.31630470    -0.80100
Zn99       Zn  0.11212059  0.29890124  0.27808818     1.49700
Zn100      Zn  0.18091585  0.29997323  0.20082842     1.49400
Zn101      Zn  0.15376966  0.36886304  0.19545758     1.49100
Zn102      Zn  0.21175386  0.36357689  0.28718587     1.49500
O103        O  0.16435493  0.33256176  0.24067560    -1.84500
O104        O  0.09425676  0.23798132  0.26710173    -0.75100
O105        O  0.19683586  0.32392757  0.13112639    -0.74900
O106        O  0.09055391  0.35185551  0.18875367    -0.74400
O107        O  0.13262220  0.24097907  0.20137995    -0.75100
O108        O  0.06275297  0.30587542  0.25169674    -0.74700
O109        O  0.18013301  0.37465072  0.12780362    -0.75300
O110        O  0.23774408  0.42524405  0.27033584    -0.74700
O111        O  0.23193629  0.29731865  0.22881032    -0.75400
O112        O  0.18581767  0.42610257  0.22432778    -0.74800
O113        O  0.25528583  0.34346315  0.29002423    -0.75300
O114        O  0.19076950  0.36034617  0.35626563    -0.75200
O115        O  0.12086826  0.31517345  0.35160773    -0.75000
C116        C  0.10299817  0.22035569  0.23256060     0.76800
C117        C  0.19651134  0.35483487  0.10830801     0.77300
C118        C  0.05858825  0.32697324  0.21558715     0.76200
C119        C  0.22015307  0.44465725  0.25014177     0.76600
C120        C  0.25843316  0.31631511  0.26417658     0.77800
C121        C  0.15423853  0.34128561  0.37619627     0.76800
C122        C  0.89526050  0.30496489  0.15090887     0.79900
N123        N  0.86597405  0.31410534  0.16887973    -0.78400
C124        C  0.83171862  0.30868251  0.13997498     0.82300
N125        N  0.82750512  0.29293549  0.09329952    -0.78400
C126        C  0.85623645  0.28320057  0.07581456     0.82400
N127        N  0.88968066  0.28943136  0.10471490    -0.80100
C128        C  0.97858216  0.01819719  0.77302371     0.79900
N129        N  0.95869606  0.97518081  0.77173756    -0.78400
C130        C  0.98191036  0.95563673  0.77170985     0.82300
N131        N  0.02511440  0.97894973  0.77130678    -0.78400
C132        C  0.04497098  0.02201160  0.77238383     0.82400
N133        N  0.02180650  0.04151074  0.77368952    -0.80100
Zn134      Zn  0.30347527  0.13679668  0.69653990     1.49700
Zn135      Zn  0.37796014  0.23301868  0.71863735     1.49400
Zn136      Zn  0.31360137  0.18400873  0.80278636     1.49100
Zn137      Zn  0.37510342  0.15062222  0.76971557     1.49500
O138        O  0.34184927  0.17606353  0.74708614    -1.84500
O139        O  0.31957454  0.16423922  0.62757433    -0.75100
O140        O  0.36993424  0.28045130  0.74698060    -0.74900
O141        O  0.25093022  0.14646471  0.79115422    -0.74400
O142        O  0.36934314  0.23109390  0.64488288    -0.75100
O143        O  0.24431386  0.11891142  0.71656675    -0.74700
O144        O  0.32397920  0.24466563  0.80709060    -0.75300
O145        O  0.38220445  0.15467063  0.84370927    -0.74700
O146        O  0.43847914  0.24764853  0.72435528    -0.75400
O147        O  0.33271456  0.16845554  0.86827821    -0.74800
O148        O  0.43214098  0.18412316  0.73957736    -0.75300
O149        O  0.35069717  0.08809827  0.75098985    -0.75200
O150        O  0.30306178  0.08077179  0.69342115    -0.75000
C151        C  0.34734180  0.20195125  0.61369214     0.76800
C152        C  0.34658202  0.27910757  0.78239507     0.77300
C153        C  0.22773559  0.12314601  0.75555097     0.76200
C154        C  0.36180312  0.15943520  0.87825309     0.76600
C155        C  0.45383779  0.22307800  0.72616859     0.77800
C156        C  0.32260818  0.06553382  0.71838079     0.76800
C157        C  0.32242316  0.41329665  0.85557858     0.79900
N158        N  0.33213704  0.45277773  0.83803125    -0.78400
C159        C  0.31812397  0.47635849  0.86148247     0.82300
N160        N  0.29414775  0.45903219  0.90308530    -0.78400
C161        C  0.28521967  0.42021084  0.92155386     0.82400
N162        N  0.29910053  0.39749520  0.89736064    -0.80100
C163        C  0.11436390  0.39150430  0.64697957     0.79900
N164        N  0.14609421  0.43039715  0.66289916    -0.78400
C165        C  0.18091321  0.45503993  0.63379339     0.82300
N166        N  0.18333357  0.44041648  0.58850477    -0.78400
C167        C  0.15152843  0.40170313  0.57251211     0.82400
N168        N  0.11734031  0.37769301  0.60175903    -0.80100
Zn169      Zn  0.86624777  0.23389323  0.77938008     1.49700
Zn170      Zn  0.78246172  0.15366781  0.73727995     1.49400
Zn171      Zn  0.87629156  0.17422338  0.71066678     1.49100
Zn172      Zn  0.83393973  0.13743349  0.81828426     1.49500
O173        O  0.84012481  0.17452925  0.76177462    -1.84500
O174        O  0.83049683  0.25672366  0.75190358    -0.75100
O175        O  0.78185358  0.14757554  0.66460504    -0.74900
O176        O  0.93451645  0.22986313  0.70540275    -0.74400
O177        O  0.76659055  0.19755929  0.74494252    -0.75100
O178        O  0.92740128  0.27300259  0.75568433    -0.74700
O179        O  0.84673057  0.16239755  0.64372561    -0.75300
O180        O  0.87687775  0.11846855  0.81035220    -0.74700
O181        O  0.73666296  0.09624684  0.76455671    -0.75400
O182        O  0.88692897  0.12753611  0.72841641    -0.74800
O183        O  0.77469057  0.08221351  0.81925423    -0.75300
O184        O  0.84258600  0.17052539  0.88215242    -0.75200
O185        O  0.86390849  0.23601746  0.85232610    -0.75000
C186        C  0.79050821  0.23787355  0.74337462     0.76800
C187        C  0.80859051  0.15219178  0.63206858     0.77300
C188        C  0.94959101  0.26626245  0.72535581     0.76200
C189        C  0.89070283  0.11227672  0.77006594     0.76600
C190        C  0.73948798  0.07113026  0.79613931     0.77800
C191        C  0.85383386  0.20957513  0.88848183     0.76800
C192        C  0.10401277  0.70654807  0.85069485     0.79900
N193        N  0.11054230  0.72378567  0.89643439    -0.78400
C194        C  0.14722260  0.73571467  0.92229628     0.82300
N195        N  0.17784521  0.72982916  0.90267092    -0.78400
C196        C  0.17283222  0.71323944  0.85642637     0.82400
N197        N  0.13540892  0.70152361  0.83034150    -0.80100
C198        C  0.33731370  0.67406871  0.78915270     0.45100
H199        H  0.34237284  0.67781107  0.82969218    -0.03900
C200        C  0.32848015  0.66955689  0.69356836     0.45200
H201        H  0.32640166  0.66959389  0.65329866    -0.03900
C202        C  0.38011161  0.70177252  0.76172109    -0.17600
C203        C  0.31999984  0.62760110  0.76994842    -0.17400
C204        C  0.30611819  0.68909104  0.76839179    -0.17700
C205        C  0.37708596  0.69567436  0.71084256    -0.17700
C206        C  0.30700051  0.62363037  0.72003617    -0.17300
C207        C  0.30595583  0.69210131  0.71673415    -0.17600
Zn208      Zn  0.87946492  0.69548134  0.72038915     1.49700
Zn209      Zn  0.83445726  0.62039336  0.79594757     1.49400
Zn210      Zn  0.80656604  0.69102978  0.79503289     1.49100
Zn211      Zn  0.78103887  0.63355834  0.70357483     1.49500
O212        O  0.82558404  0.66034450  0.75458963    -1.84500
O213        O  0.92858509  0.69048030  0.75007889    -0.75100
O214        O  0.81124595  0.61610721  0.86566081    -0.74900
O215        O  0.85141891  0.75288393  0.78905348    -0.74400
O216        O  0.89857378  0.63728874  0.80332744    -0.75100
O217        O  0.89633440  0.75534859  0.73224098    -0.74700
O218        O  0.79684907  0.66869029  0.86649297    -0.75300
O219        O  0.73610087  0.65173088  0.70057182    -0.74700
O220        O  0.79881884  0.56348116  0.76275909    -0.75400
O221        O  0.75045889  0.68635751  0.77125603    -0.74800
O222        O  0.75144126  0.57216971  0.71645320    -0.75300
O223        O  0.80601350  0.63778666  0.63617304    -0.75200
O224        O  0.87545356  0.68165949  0.64630965    -0.75000
C225        C  0.93241527  0.66673522  0.78268254     0.76800
C226        C  0.79820037  0.63775448  0.88807601     0.77300
C227        C  0.88410233  0.77370160  0.76168722     0.76200
C228        C  0.72721386  0.67140499  0.73228332     0.76600
C229        C  0.76555769  0.54916477  0.73470931     0.77800
C230        C  0.84363625  0.65658498  0.61897826     0.76800
C231        C  0.59740860  0.70656715  0.66048344     0.79900
N232        N  0.61395349  0.72579265  0.61623187    -0.78400
C233        C  0.59267477  0.73858186  0.58513373     0.82300
N234        N  0.55401565  0.73216773  0.59839548    -0.78400
C235        C  0.53650130  0.71286561  0.64269840     0.82400
N236        N  0.55847553  0.70014908  0.67417768    -0.80100
C237        C  0.60132590  0.90391051  0.85432183     0.79900
N238        N  0.61058583  0.89654431  0.90139865    -0.78400
C239        C  0.58435941  0.85944378  0.92549456     0.82300
N240        N  0.54831110  0.82912237  0.90249094    -0.78400
C241        C  0.53827579  0.83554752  0.85516483     0.82400
N242        N  0.56499029  0.87329924  0.83091588    -0.80100
C243        C  0.28012679  0.89670665  0.65677341     0.79900
N244        N  0.25990426  0.89044745  0.61196458    -0.78400
C245        C  0.24821914  0.85497520  0.58556918     0.82300
N246        N  0.25719851  0.82523276  0.60386232    -0.78400
C247        C  0.27754531  0.83062261  0.64875169     0.82400
N248        N  0.28925542  0.86671223  0.67538130    -0.80100
C249        C  0.69860093  0.31902417  0.68330167     0.79900
N250        N  0.71353773  0.36135217  0.68348851    -0.78400
C251        C  0.68611875  0.37599533  0.67898959     0.82300
N252        N  0.64369517  0.34817971  0.67545335    -0.78400
C253        C  0.62861899  0.30573105  0.67588522     0.82400
N254        N  0.65609431  0.29109774  0.68009182    -0.80100
C255        C  0.75731935  0.49445611  0.67656609    -0.02200
C256        C  0.74374096  0.50508527  0.71957437     0.07500
C257        C  0.70754288  0.47452081  0.74519360    -0.02300
C258        C  0.68704956  0.43190696  0.73064243    -0.02300
C259        C  0.70200427  0.42071976  0.68892086     0.07600
C260        C  0.73629205  0.45212576  0.66106902    -0.02500
Br261      Br  0.75429995  0.43711583  0.60173079    -0.01000
Br262      Br  0.80431577  0.53806830  0.63858211    -0.01100
Br263      Br  0.64126509  0.38915266  0.77096019    -0.01100
Br264      Br  0.68637432  0.49136526  0.80004926    -0.01100
C265        C  0.69428317  0.71844899  0.73048065    -0.02200
C266        C  0.69000909  0.67804380  0.72296647     0.07500
C267        C  0.65048918  0.64473073  0.70421628    -0.02300
C268        C  0.61779615  0.65290483  0.68844485    -0.02300
C269        C  0.62370318  0.69409993  0.69208427     0.07600
C270        C  0.66146069  0.72633724  0.71474898    -0.02500
Br271      Br  0.66918627  0.78254140  0.72096033    -0.01000
Br272      Br  0.74625276  0.76468514  0.75863792    -0.01100
Br273      Br  0.56583273  0.60846284  0.65841960    -0.01100
Br274      Br  0.64038354  0.58743451  0.70104719    -0.01100
C275        C  0.41728928  0.67780203  0.64439524    -0.02200
C276        C  0.41682457  0.70672271  0.67895821     0.07500
C277        C  0.45765430  0.74298857  0.68926322    -0.02300
C278        C  0.49563785  0.74204866  0.68321735    -0.02300
C279        C  0.49506246  0.70900053  0.65690463     0.07600
C280        C  0.45604691  0.67856876  0.63448631    -0.02500
Br281      Br  0.45619211  0.63806649  0.58969060    -0.01000
Br282      Br  0.36800660  0.64137573  0.60362301    -0.01100
Br283      Br  0.54944277  0.78870156  0.70696604    -0.01100
Br284      Br  0.46456708  0.79885410  0.68707706    -0.01100
C285        C  0.49029354  0.75932131  0.82732370    -0.02200
C286        C  0.49785703  0.80131381  0.83140102     0.07500
C287        C  0.46545149  0.80959958  0.81564993    -0.02300
C288        C  0.42711233  0.77718654  0.79366163    -0.02300
C289        C  0.41974704  0.73522319  0.78865979     0.07600
C290        C  0.45139580  0.72650554  0.80669923    -0.02500
Br291      Br  0.44249374  0.67002063  0.80090137    -0.01000
Br292      Br  0.53419387  0.74693587  0.84776227    -0.01100
Br293      Br  0.38853082  0.79320914  0.76291246    -0.01100
Br294      Br  0.47318094  0.86549271  0.82492813    -0.01100
C295        C  0.25592342  0.72216145  0.69572549    -0.02200
C296        C  0.29497311  0.72318621  0.68857913     0.07500
C297        C  0.32581411  0.75864672  0.66000645    -0.02300
C298        C  0.32179535  0.79512736  0.65069585    -0.02300
C299        C  0.28601650  0.79635649  0.66728781     0.07600
C300        C  0.25303836  0.75934442  0.68987646    -0.02500
Br301      Br  0.20171673  0.75817597  0.70899881    -0.01000
Br302      Br  0.20342994  0.66988358  0.68403484    -0.01100
Br303      Br  0.36500460  0.84364970  0.61399001    -0.01100
Br304      Br  0.36855738  0.75521078  0.62363008    -0.01100
C305        C  0.19660482  0.66729137  0.81333317    -0.02200
C306        C  0.20732590  0.70582277  0.83687660     0.07500
C307        C  0.25147912  0.73470276  0.84696663    -0.02300
C308        C  0.28327062  0.72569873  0.83203914    -0.02300
C309        C  0.27287976  0.69174686  0.79971423     0.07600
C310        C  0.22897314  0.66050745  0.79521739    -0.02500
Br311      Br  0.21231544  0.60652235  0.76681345    -0.01000
Br312      Br  0.13756927  0.62219755  0.80749082    -0.01100
Br313      Br  0.33719334  0.75232406  0.86713351    -0.01100
Br314      Br  0.27017395  0.78832501  0.87902627    -0.01100
C315        C  0.05617128  0.71715175  0.78958964    -0.02200
C316        C  0.06128568  0.69176026  0.82618811     0.07500
C317        C  0.02447125  0.65730515  0.84741879    -0.02300
C318        C  0.98292283  0.64887782  0.83369806    -0.02300
C319        C  0.97696971  0.67447231  0.79675316     0.07600
C320        C  0.01485125  0.70874125  0.77448648    -0.02500
Br321      Br  0.01304120  0.74731671  0.72468667    -0.01000
Br322      Br  0.10683116  0.76582504  0.76273822    -0.01100
Br323      Br  0.93554627  0.60317931  0.86937914    -0.01100
Br324      Br  0.03167052  0.62199487  0.89715571    -0.01100
C325        C  0.74334844  0.30844657  0.74613085    -0.02200
C326        C  0.72696748  0.30324359  0.69694846     0.07500
C327        C  0.73433962  0.27954898  0.66250935    -0.02300
C328        C  0.75733076  0.25991821  0.67755353    -0.02300
C329        C  0.77138264  0.26282661  0.72740580     0.07600
C330        C  0.76508506  0.28748528  0.76165012    -0.02500
Br331      Br  0.78345788  0.28990618  0.83022598    -0.01000
Br332      Br  0.73385050  0.34198816  0.79307471    -0.01100
Br333      Br  0.76968511  0.22912166  0.62982219    -0.01100
Br334      Br  0.71252817  0.27372652  0.59505845    -0.01100
C335        C  0.66388536  0.02313163  0.82603088    -0.02200
C336        C  0.70143420  0.02789706  0.80536991     0.07500
C337        C  0.70268884  0.99095474  0.79382648    -0.02300
C338        C  0.66868268  0.95003641  0.80716052    -0.02300
C339        C  0.63205763  0.94534585  0.83009435     0.07600
C340        C  0.62952516  0.98207713  0.83861708    -0.02500
Br341      Br  0.57988040  0.97609626  0.87055760    -0.01000
Br342      Br  0.66025574  0.07296696  0.83925542    -0.01100
Br343      Br  0.67329901  0.90034448  0.79684701    -0.01100
Br344      Br  0.75026202  0.99637059  0.75753631    -0.01100
C345        C  0.03821739  0.36806166  0.66477946    -0.02200
C346        C  0.07463111  0.36487102  0.67574404     0.07500
C347        C  0.07054249  0.33135023  0.70715144    -0.02300
C348        C  0.02999130  0.30001907  0.72511228    -0.02300
C349        C  0.99308743  0.30173099  0.71151714     0.07600
C350        C  0.99769472  0.33673941  0.68253349    -0.02500
Br351      Br  0.94798562  0.34038139  0.66424909    -0.01000
Br352      Br  0.04385020  0.41467588  0.62337106    -0.01100
Br353      Br  0.02491276  0.25492416  0.76884531    -0.01100
Br354      Br  0.12051338  0.32787941  0.72428658    -0.01100
C355        C  0.25285045  0.57663221  0.64794228    -0.02200
C356        C  0.27265267  0.58002841  0.69618068     0.07500
C357        C  0.25577352  0.53993606  0.72281067    -0.02300
C358        C  0.23474582  0.50083764  0.69801124    -0.02300
C359        C  0.21552527  0.49785806  0.65149341     0.07600
C360        C  0.22462510  0.53599670  0.62641077    -0.02500
Br361      Br  0.19582835  0.53198911  0.56337358    -0.01000
Br362      Br  0.25256688  0.62405520  0.61469985    -0.01100
Br363      Br  0.22813363  0.45003055  0.73111172    -0.01100
Br364      Br  0.23434979  0.53117194  0.78960288    -0.01100
C365        C  0.32087372  0.54836141  0.87063526    -0.02200
C366        C  0.32669216  0.51969098  0.84095683     0.07500
C367        C  0.33941912  0.53286580  0.79099041    -0.02300
C368        C  0.34369071  0.57141900  0.77158800    -0.02300
C369        C  0.32882709  0.59486875  0.79756992     0.07600
C370        C  0.31934882  0.58373779  0.84873900    -0.02500
Br371      Br  0.29603027  0.61067533  0.88780387    -0.01000
Br372      Br  0.31671587  0.54167431  0.94234463    -0.01100
Br373      Br  0.37223363  0.59188479  0.70950173    -0.01100
Br374      Br  0.34943404  0.49834432  0.74559706    -0.01100
C375        C  0.51073534  0.25908401  0.66358453    -0.02200
C376        C  0.49784591  0.24003746  0.71116775     0.07500
C377        C  0.52704498  0.23739153  0.74427975    -0.02300
C378        C  0.56986709  0.25592008  0.73084199    -0.02300
C379        C  0.58323164  0.27716795  0.68430988     0.07600
C380        C  0.55357493  0.27784027  0.65028164    -0.02500
Br381      Br  0.57209010  0.30546916  0.58592645    -0.01000
Br382      Br  0.46998180  0.25949215  0.61630923    -0.01100
Br383      Br  0.61042454  0.25568785  0.77872658    -0.01100
Br384      Br  0.50933206  0.21203677  0.80990294    -0.01100
C385        C  0.33494728  0.97058512  0.68516258    -0.02200
C386        C  0.29203679  0.93703500  0.68294736     0.07500
C387        C  0.25951459  0.94532870  0.69563504    -0.02300
C388        C  0.26949931  0.98687663  0.70829838    -0.02300
C389        C  0.31238295  0.02090477  0.70887215     0.07600
C390        C  0.34510212  0.01225104  0.69803079    -0.02500
Br391      Br  0.40367215  0.05833755  0.69549061    -0.01000
Br392      Br  0.37960239  0.96019968  0.66630361    -0.01100
Br393      Br  0.22393723  0.99689793  0.72463865    -0.01100
Br394      Br  0.20072086  0.89938571  0.69468979    -0.01100
C395        C  0.37607298  0.35013823  0.82468643    -0.02200
C396        C  0.34430683  0.31768822  0.79466198     0.07500
C397        C  0.30829651  0.32042741  0.77951130    -0.02300
C398        C  0.30296825  0.35388309  0.79632110    -0.02300
C399        C  0.33360603  0.38514312  0.82842990     0.07600
C400        C  0.37061586  0.38355106  0.84173744    -0.02500
Br401      Br  0.41261512  0.42590648  0.88571489    -0.01000
Br402      Br  0.42582663  0.34725368  0.84479276    -0.01100
Br403      Br  0.25224691  0.35562010  0.77780815    -0.01100
Br404      Br  0.26552659  0.27737825  0.73668771    -0.01100
C405        C  0.91733026  0.84073448  0.81111238    -0.02200
C406        C  0.90932839  0.82049537  0.76449894     0.07500
C407        C  0.92737359  0.84525438  0.72072911    -0.02300
C408        C  0.95323945  0.88962109  0.72380582    -0.02300
C409        C  0.95982516  0.90940343  0.76987829     0.07600
C410        C  0.94230020  0.88526990  0.81349470    -0.02500
Br411      Br  0.95355698  0.91359163  0.87662815    -0.01000
Br412      Br  0.89628268  0.80836842  0.87252877    -0.01100
Br413      Br  0.97908587  0.92371302  0.66472675    -0.01100
Br414      Br  0.91498260  0.81971540  0.65557995    -0.01100
C415        C  0.89704155  0.05002587  0.80076263    -0.02200
C416        C  0.91227070  0.08726684  0.77075634     0.07500
C417        C  0.94731331  0.09958253  0.73911336    -0.02300
C418        C  0.96653020  0.07477238  0.73737418    -0.02300
C419        C  0.95384715  0.03992143  0.77054278     0.07600
C420        C  0.91852838  0.02705350  0.80167401    -0.02500
Br421      Br  0.89975557  0.97879415  0.84680983    -0.01000
Br422      Br  0.84554882  0.02863102  0.83888599    -0.01100
Br423      Br  0.00803026  0.08704445  0.68632686    -0.01100
Br424      Br  0.97154739  0.15165612  0.69935464    -0.01100
C425        C  0.11653766  0.06322135  0.81148696    -0.02200
C426        C  0.09121935  0.04779856  0.76836093     0.07500
C427        C  0.10961640  0.05834433  0.72112067    -0.02300
C428        C  0.15395350  0.08462661  0.71660370    -0.02300
C429        C  0.18046821  0.09914592  0.76007398     0.07600
C430        C  0.16112579  0.08834998  0.80783238    -0.02500
Br431      Br  0.19384349  0.10521491  0.86965249    -0.01000
Br432      Br  0.08941288  0.04885109  0.87572902    -0.01100
Br433      Br  0.17637189  0.10128419  0.64989158    -0.01100
Br434      Br  0.07356901  0.03656317  0.66234401    -0.01100
C435        C  0.88858423  0.28570902  0.99496520    -0.02200
C436        C  0.85262151  0.26575132  0.02591901     0.07500
C437        C  0.81749812  0.22571127  0.01287274    -0.02300
C438        C  0.81789372  0.20645386  0.96821661    -0.02300
C439        C  0.85463260  0.22582059  0.93838339     0.07600
C440        C  0.89038394  0.26490489  0.95278040    -0.02500
Br441      Br  0.94302915  0.28897513  0.91630164    -0.01000
Br442      Br  0.93531945  0.34237299  0.00955173    -0.01100
Br443      Br  0.76745434  0.15460680  0.94720677    -0.01100
Br444      Br  0.77011629  0.19581504  0.05741696    -0.01100
C445        C  0.12281718  0.36774455  0.43796382    -0.02200
C446        C  0.15083697  0.35273979  0.42788367     0.07500
C447        C  0.17927117  0.35410010  0.46577360    -0.02300
C448        C  0.18011743  0.37088156  0.51283584    -0.02300
C449        C  0.15240715  0.38611482  0.52250983     0.07600
C450        C  0.12338405  0.38395182  0.48521389    -0.02500
Br451      Br  0.08540209  0.40489510  0.49832569    -0.01000
Br452      Br  0.08580949  0.36950976  0.38612400    -0.01100
Br453      Br  0.21841859  0.37205576  0.56473668    -0.01100
Br454      Br  0.21623967  0.33173071  0.45389266    -0.01100
C455        C  0.19757775  0.37702394  0.01828506    -0.02200
C456        C  0.21806503  0.36966038  0.05951655     0.07500
C457        C  0.26039440  0.37823517  0.05471658    -0.02300
C458        C  0.28217249  0.39488277  0.00965552    -0.02300
C459        C  0.26197650  0.40305985  0.96885747     0.07600
C460        C  0.21936759  0.39332190  0.97299523    -0.02500
Br461      Br  0.19001113  0.39971921  0.91551882    -0.01000
Br462      Br  0.13890195  0.36277192  0.02288768    -0.01100
Br463      Br  0.34056456  0.40797341  0.00460045    -0.01100
Br464      Br  0.29006325  0.36959905  0.11056979    -0.01100
C465        C  0.96975625  0.35217434  0.18515523    -0.02200
C466        C  0.93379940  0.31099384  0.17913975     0.07500
C467        C  0.93875637  0.27523701  0.18728785    -0.02300
C468        C  0.97911626  0.28045370  0.19984814    -0.02300
C469        C  0.01550267  0.32170720  0.20440291     0.07600
C470        C  0.01030963  0.35754159  0.19777531    -0.02500
Br471      Br  0.05877533  0.41430111  0.20568142    -0.01000
Br472      Br  0.96422940  0.40142431  0.17186563    -0.01100
Br473      Br  0.98482594  0.23060175  0.20589750    -0.01100
Br474      Br  0.89013742  0.21856220  0.17814938    -0.01100
C475        C  0.35798452  0.24841110  0.53896347    -0.02200
C476        C  0.35706002  0.21221296  0.56030724     0.07500
C477        C  0.37157227  0.18965152  0.53266141    -0.02300
C478        C  0.38562512  0.20250608  0.48341915    -0.02300
C479        C  0.38611068  0.23853710  0.46200603     0.07600
C480        C  0.37308885  0.26193345  0.49039749    -0.02500
Br481      Br  0.37909816  0.31475390  0.46455817    -0.01000
Br482      Br  0.33825929  0.27957108  0.57622268    -0.01100
Br483      Br  0.40385250  0.17046599  0.44542344    -0.01100
Br484      Br  0.37559758  0.14322301  0.56345651    -0.01100
C485        C  0.36634992  0.32889831  0.30410718    -0.02200
C486        C  0.35735563  0.28646551  0.30369501     0.07500
C487        C  0.31677962  0.25410743  0.28727563    -0.02300
C488        C  0.28471184  0.26367504  0.27352940    -0.02300
C489        C  0.29309022  0.30623039  0.27559813     0.07600
C490        C  0.33474899  0.33888957  0.28960696    -0.02500
Br491      Br  0.34954503  0.39786055  0.28859575    -0.01000
Br492      Br  0.42127525  0.37301819  0.32864554    -0.01100
Br493      Br  0.22845042  0.21709644  0.25631631    -0.01100
Br494      Br  0.30489169  0.19605204  0.28574670    -0.01100
C495        C  0.73631762  0.10943778  0.51934464    -0.02200
C496        C  0.75931770  0.14207506  0.48398078     0.07500
C497        C  0.80056331  0.17589982  0.49573108    -0.02300
C498        C  0.81786192  0.17854093  0.54381283    -0.02300
C499        C  0.79431379  0.14648581  0.57968990     0.07600
C500        C  0.75411536  0.11125051  0.56682464    -0.02500
Br501      Br  0.72344970  0.06489606  0.61402481    -0.01000
Br502      Br  0.67927093  0.06340688  0.50410120    -0.01100
Br503      Br  0.87233398  0.22777521  0.56097555    -0.01100
Br504      Br  0.83384024  0.21804480  0.44550174    -0.01100
C505        C  0.64288601  0.81979261  0.47990173    -0.02200
C506        C  0.64790555  0.79525400  0.44369946     0.07500
C507        C  0.63624367  0.75264341  0.45506304    -0.02300
C508        C  0.61842675  0.73438683  0.50151379    -0.02300
C509        C  0.61155652  0.75828483  0.53664337     0.07600
C510        C  0.62455346  0.80125808  0.52615680    -0.02500
Br511      Br  0.61795095  0.83492351  0.57556030    -0.01000
Br512      Br  0.66163303  0.87908066  0.46641201    -0.01100
Br513      Br  0.60076109  0.67546036  0.51573319    -0.01100
Br514      Br  0.64065483  0.71753407  0.40558621    -0.01100
C515        C  0.59362529  0.86113482  0.06606132    -0.02200
C516        C  0.62053908  0.84413948  0.07422296     0.07500
C517        C  0.63457080  0.83108314  0.03356920    -0.02300
C518        C  0.62197804  0.83531803  0.98475990    -0.02300
C519        C  0.59530226  0.85253326  0.97662120     0.07600
C520        C  0.58123847  0.86557569  0.01722051    -0.02500
Br521      Br  0.54594789  0.89054364  0.00551833    -0.01000
Br522      Br  0.57333504  0.87776123  0.12189941    -0.01100
Br523      Br  0.64212443  0.81870853  0.92879847    -0.01100
Br524      Br  0.67244593  0.80905729  0.04481410    -0.01100
C525        C  0.64678443  0.98943348  0.31389299    -0.02200
C526        C  0.67963288  0.98321520  0.29622780     0.07500
C527        C  0.72186319  0.01875919  0.29445999    -0.02300
C528        C  0.73094777  0.05912733  0.31085328    -0.02300
C529        C  0.69856754  0.06455372  0.33062622     0.07600
C530        C  0.65644028  0.02965867  0.33175837    -0.02500
Br531      Br  0.61255331  0.03650505  0.36131888    -0.01000
Br532      Br  0.58818436  0.94324722  0.31360464    -0.01100
Br533      Br  0.78857263  0.10723358  0.30850340    -0.01100
Br534      Br  0.76885461  0.01208241  0.27484362    -0.01100
C535        C  0.49685770  0.25556118  0.30410831    -0.02200
C536        C  0.49400336  0.28612622  0.33173444     0.07500
C537        C  0.53123013  0.31782498  0.35594675    -0.02300
C538        C  0.57123750  0.32070318  0.34918208    -0.02300
C539        C  0.57443409  0.29166716  0.31765856     0.07600
C540        C  0.53517002  0.25486626  0.30478500    -0.02500
Br541      Br  0.52660165  0.20132405  0.33006582    -0.01000
Br542      Br  0.44634317  0.20897615  0.27423571    -0.01100
Br543      Br  0.61763435  0.35793036  0.39245991    -0.01100
Br544      Br  0.52695268  0.35735666  0.39849129    -0.01100
C545        C  0.67530743  0.24864812  0.35952863    -0.02200
C546        C  0.69218795  0.26921096  0.31196918     0.07500
C547        C  0.71227896  0.25060718  0.28505236    -0.02300
C548        C  0.72804140  0.22682004  0.30943154    -0.02300
C549        C  0.71040765  0.20606850  0.35439115     0.07600
C550        C  0.68406528  0.21713600  0.37964425    -0.02500
Br551      Br  0.65798254  0.18673122  0.44100348    -0.01000
Br552      Br  0.63168406  0.25254484  0.39435537    -0.01100
Br553      Br  0.76889238  0.21710917  0.27637533    -0.01100
Br554      Br  0.69204371  0.22583759  0.22042277    -0.01100
C555        C  0.72462271  0.30732516  0.15863540    -0.02200
C556        C  0.72990772  0.32214226  0.20820533     0.07500
C557        C  0.77159325  0.34043652  0.22963677    -0.02300
C558        C  0.80530523  0.33972959  0.20537607    -0.02300
C559        C  0.79810027  0.31795201  0.15989248     0.07600
C560        C  0.75787531  0.30461595  0.13504371    -0.02500
Br561      Br  0.74559836  0.28191068  0.06839221    -0.01000
Br562      Br  0.66885322  0.28154988  0.12624125    -0.01100
Br563      Br  0.86230386  0.37309677  0.23395073    -0.01100
Br564      Br  0.78471610  0.36796729  0.29271642    -0.01100
C565        C  0.81840847  0.63756117  0.52972635    -0.02200
C566        C  0.84986707  0.64634681  0.56726708     0.07500
C567        C  0.88441593  0.64029469  0.55640509    -0.02300
C568        C  0.88603025  0.62378300  0.50998142    -0.02300
C569        C  0.85284969  0.61215395  0.47427127     0.07600
C570        C  0.81969876  0.62017761  0.48389523    -0.02500
Br571      Br  0.77693465  0.60931498  0.43312435    -0.01000
Br572      Br  0.77417592  0.65110336  0.53952744    -0.01100
Br573      Br  0.93308217  0.61524774  0.49627392    -0.01100
Br574      Br  0.92866752  0.65157780  0.60552836    -0.01100
C575        C  0.71125118  0.45245185  0.32410907    -0.02200
C576        C  0.71220274  0.41399506  0.32933005     0.07500
C577        C  0.74671391  0.41682545  0.35861641    -0.02300
C578        C  0.78406913  0.45702075  0.36741342    -0.02300
C579        C  0.78572834  0.49526334  0.35260247     0.07600
C580        C  0.74829889  0.49258749  0.33261869    -0.02500
Br581      Br  0.74744864  0.54419641  0.31716187    -0.01000
Br582      Br  0.65764816  0.45075980  0.32271863    -0.01100
Br583      Br  0.83326021  0.45992567  0.40022867    -0.01100
Br584      Br  0.73986682  0.36867920  0.39791127    -0.01100
C585        C  0.38354331  0.12253307  0.94313116    -0.02200
C586        C  0.37234303  0.15382024  0.93085680     0.07500
C587        C  0.37240433  0.17998590  0.96903220    -0.02300
C588        C  0.38285758  0.17438493  0.01846049    -0.02300
C589        C  0.39638182  0.14508239  0.02954625     0.07600
C590        C  0.39672395  0.11922530  0.99193217    -0.02500
Br591      Br  0.41598574  0.07954254  0.00747733    -0.01000
Br592      Br  0.37876146  0.08191292  0.89463756    -0.01100
Br593      Br  0.37635458  0.20511072  0.07167789    -0.01100
Br594      Br  0.36099604  0.22551396  0.95431237    -0.01100
C595        C  0.52861319  0.19228959  0.19671794    -0.02200
C596        C  0.50227368  0.20235053  0.16693714     0.07500
C597        C  0.51888705  0.24589049  0.15298908    -0.02300
C598        C  0.55984664  0.27792888  0.16960668    -0.02300
C599        C  0.58172784  0.26887948  0.20753624     0.07600
C600        C  0.56728382  0.22513550  0.21753153    -0.02500
Br601      Br  0.60048958  0.20861481  0.25840216    -0.01000
Br602      Br  0.51345936  0.13351741  0.20751723    -0.01100
Br603      Br  0.58820353  0.33098092  0.13286676    -0.01100
Br604      Br  0.48543543  0.26406047  0.11426472    -0.01100
C605        C  0.16777647  0.81223924  0.02663720    -0.02200
C606        C  0.15385192  0.78421781  0.06816051     0.07500
C607        C  0.14026966  0.74080326  0.06202221    -0.02300
C608        C  0.13943057  0.72521462  0.01433143    -0.02300
C609        C  0.15227208  0.75299074  0.97265162     0.07600
C610        C  0.16648086  0.79652896  0.97881310    -0.02500
Br611      Br  0.18354924  0.83432354  0.92148084    -0.01000
Br612      Br  0.18850382  0.87203849  0.03549264    -0.01100
Br613      Br  0.11985602  0.66560261  0.00568327    -0.01100
Br614      Br  0.12361467  0.70291401  0.11926771    -0.01100
C615        C  0.18522456  0.82755417  0.52675496    -0.02200
C616        C  0.22975502  0.85133120  0.53507257     0.07500
C617        C  0.25706058  0.87372606  0.49527128    -0.02300
C618        C  0.24017668  0.87110920  0.44691997    -0.02300
C619        C  0.19566067  0.84701224  0.43828041     0.07600
C620        C  0.16816205  0.82528420  0.47832687    -0.02500
Br621      Br  0.10723029  0.79322033  0.46683794    -0.01000
Br622      Br  0.14782047  0.79901382  0.58196302    -0.01100
Br623      Br  0.27850100  0.89808111  0.39186437    -0.01100
Br624      Br  0.31789066  0.90783130  0.50713509    -0.01100
C625        C  0.97215469  0.69680845  0.28050134    -0.02200
C626        C  0.00822790  0.69150458  0.28274344     0.07500
C627        C  0.00260387  0.65205889  0.30096574    -0.02300
C628        C  0.96306745  0.62054416  0.32108490    -0.02300
C629        C  0.92778164  0.62665766  0.32024881     0.07600
C630        C  0.93216920  0.66419274  0.29816256    -0.00900
Br631      Br  0.88323368  0.67165462  0.29487264    -0.01000
Br632      Br  0.97753660  0.75025533  0.25853374    -0.01100
Br633      Br  0.95820540  0.57058316  0.35399197    -0.01100
Br634      Br  0.04869136  0.64042184  0.29787770    -0.01100
C635        C  0.36876906  0.02568893  0.18492405    -0.02200
C636        C  0.36452770  0.06205787  0.18418827     0.07500
C637        C  0.32656741  0.05836301  0.20156924    -0.02300
C638        C  0.29203329  0.01829742  0.21667173    -0.02300
C639        C  0.29544601  0.98118287  0.21573343     0.07600
C640        C  0.33492082  0.98572869  0.20149049    -0.02500
Br641      Br  0.34373318  0.93765348  0.20533287    -0.01000
Br642      Br  0.42021299  0.03016093  0.16019974    -0.01100
Br643      Br  0.23910467  0.01469951  0.23412659    -0.01100
Br644      Br  0.32166310  0.10869073  0.20257328    -0.01100
C645        C  0.81098387  0.63013610  0.97938526    -0.02200
C646        C  0.78272255  0.62579851  0.93992935     0.07500
C647        C  0.73923760  0.60987316  0.95001552    -0.02300
C648        C  0.72424706  0.59880238  0.99918166    -0.02300
C649        C  0.75236331  0.60268837  0.03860013     0.07600
C650        C  0.79579971  0.61836827  0.02852108    -0.02500
Br651      Br  0.83480171  0.62520169  0.08230214    -0.01000
Br652      Br  0.87088092  0.65414049  0.96627209    -0.01100
Br653      Br  0.66481994  0.57756596  0.01258040    -0.01100
Br654      Br  0.69971095  0.60147826  0.89600536    -0.01100
C655        C  0.72904428  0.45174475  0.20666690    -0.02200
C656        C  0.68742489  0.41886796  0.21902708     0.07500
C657        C  0.65309807  0.42637069  0.20964631    -0.02300
C658        C  0.66059425  0.46581119  0.18877596    -0.02300
C659        C  0.70254916  0.49952377  0.17964726     0.07600
C660        C  0.73667015  0.49196577  0.18863858    -0.02500
Br661      Br  0.79458118  0.53769415  0.17893924    -0.01000
Br662      Br  0.77611327  0.44216004  0.21497545    -0.01100
Br663      Br  0.61296825  0.47317467  0.17121095    -0.01100
Br664      Br  0.59614902  0.38552734  0.23197913    -0.01100
C665        C  0.73121289  0.67368073  0.20690438    -0.02200
C666        C  0.69815534  0.63556049  0.18616459     0.07500
C667        C  0.65679182  0.62977385  0.18231962    -0.02300
C668        C  0.64846613  0.66150618  0.19892655    -0.02300
C669        C  0.68203948  0.70093930  0.21750627     0.07600
C670        C  0.72364977  0.70644812  0.22143426    -0.02500
Br671      Br  0.77193504  0.76018408  0.24221810    -0.01000
Br672      Br  0.78751737  0.68108758  0.21447088    -0.01100
Br673      Br  0.59024889  0.64952027  0.19707284    -0.01100
Br674      Br  0.61179294  0.57891737  0.15155527    -0.01100
C675        C  0.27200024  0.56166000  0.22297657    -0.02200
C676        C  0.27535684  0.57709935  0.27129766     0.07500
C677        C  0.25862473  0.54914596  0.31230564    -0.02300
C678        C  0.24083469  0.50537382  0.30548466    -0.02300
C679        C  0.23947151  0.49008276  0.25745879     0.07600
C680        C  0.25413523  0.51792889  0.21600118    -0.02500
Br681      Br  0.25176154  0.49638560  0.15024972    -0.01000
Br682      Br  0.29138216  0.60026897  0.16647003    -0.01100
Br683      Br  0.21795471  0.46655268  0.36168988    -0.01100
Br684      Br  0.26087829  0.57116591  0.37762401    -0.01100
C685        C  0.47819704  0.72917405  0.23167511    -0.02200
C686        C  0.50407816  0.74427718  0.27475649     0.07500
C687        C  0.48600370  0.73695103  0.32236178    -0.02300
C688        C  0.44161441  0.71596198  0.32657654    -0.02300
C689        C  0.41591019  0.70167230  0.28342382     0.07600
C690        C  0.43391098  0.70755569  0.23612084    -0.02500
Br691      Br  0.39829856  0.68847637  0.17700550    -0.01000
Br692      Br  0.50316104  0.74084937  0.16621904    -0.01100
Br693      Br  0.41578689  0.70693974  0.39103387    -0.01100
Br694      Br  0.52173922  0.75450406  0.38169231    -0.01100
C695        C  0.26756220  0.75420634  0.23442668    -0.02200
C696        C  0.24940944  0.76149207  0.27594829     0.07500
C697        C  0.25517881  0.74891429  0.32428819    -0.02300
C698        C  0.27623884  0.72584706  0.33049569    -0.02300
C699        C  0.29215143  0.71667090  0.28858427     0.07600
C700        C  0.28929651  0.73200558  0.24096680    -0.02500
Br701      Br  0.31373755  0.72099706  0.18429792    -0.01000
Br702      Br  0.26029666  0.77162485  0.16796450    -0.01100
Br703      Br  0.28299701  0.70636685  0.39573918    -0.01100
Br704      Br  0.23564532  0.76444933  0.38189650    -0.01100
C705        C  0.83363075  0.90668919  0.19211861    -0.02200
C706        C  0.81737973  0.91262933  0.23620106     0.07500
C707        C  0.84465647  0.93838663  0.27447229    -0.02300
C708        C  0.88874215  0.95811246  0.26886470    -0.02300
C709        C  0.90505175  0.95277516  0.22446207     0.07600
C710        C  0.87780547  0.92708620  0.18613911    -0.02500
Br711      Br  0.90103330  0.92064049  0.12541439    -0.01000
Br712      Br  0.79549097  0.86950994  0.14093708    -0.01100
Br713      Br  0.92666481  0.99095740  0.32275933    -0.01100
Br714      Br  0.82161494  0.94769481  0.33368407    -0.01100
C715        C  0.06176212  0.10521785  0.26274673    -0.02200
C716        C  0.03786576  0.08625489  0.21916933     0.07500
C717        C  0.03344214  0.11101827  0.18103449    -0.02300
C718        C  0.05454662  0.15533970  0.18566080    -0.02300
C719        C  0.07895942  0.17431135  0.22893410     0.07600
C720        C  0.08266925  0.14946606  0.26746012    -0.02500
Br721      Br  0.11817790  0.17617942  0.32543369    -0.01000
Br722      Br  0.06404342  0.07055666  0.31712789    -0.01100
Br723      Br  0.04989980  0.19001217  0.13299895    -0.01100
Br724      Br  0.99892528  0.08433290  0.12243640    -0.01100
C725        C  0.05388198  0.90494523  0.27114740    -0.02200
C726        C  0.07993892  0.90657934  0.23237560     0.07500
C727        C  0.08578138  0.93188791  0.18946343    -0.02300
C728        C  0.06468657  0.95502210  0.18480815    -0.02300
C729        C  0.03827797  0.95300559  0.22333133     0.07600
C730        C  0.03342881  0.92867671  0.26691004    -0.02500
Br731      Br  0.00069919  0.92963593  0.32187827    -0.01000
Br732      Br  0.04524530  0.86926926  0.32933762    -0.01100
Br733      Br  0.07123668  0.98872011  0.12539373    -0.01100
Br734      Br  0.12399568  0.93620818  0.13811207    -0.01100
loop_ 
_geom_bond_atom_site_label_1 
_geom_bond_atom_site_label_2 
_geom_bond_distance 
_geom_bond_site_symmetry_2 
_ccdc_geom_bond_type 
C1            N2   1.353   1_455  A
C1            N6   1.354   1_565  A
C1          C729   1.455       .  S
N2            C3   1.351       .  A
C3            N4   1.348   1_565  A
C3          C709   1.445       .  S
N4            C5   1.348   1_655  A
C5            N6   1.354       .  A
C5          C716   1.450       .  S
C7            N8   1.351       .  A
C7           N12   1.354       .  A
C7          C699   1.445       .  S
N8            C9   1.350       .  A
C9           N10   1.349       .  A
C9          C689   1.444       .  S
N10          C11   1.350       .  A
C11          N12   1.352       .  A
C11         C676   1.447       .  S
C13          N14   1.373       .  A
C13          N18   1.359       .  A
C13         C666   1.503       .  S
N14          C15   1.375       .  A
C15          N16   1.363       .  A
C15         C659   1.509       .  S
N16          C17   1.361       .  A
C17          N18   1.358       .  A
C17         C649   1.486       .  S
Zn19         O23   1.948       .  S
Zn19         O24   2.033       .  S
Zn19         O28   1.988       .  S
Zn19         O35   2.056       .  S
Zn20         O23   1.947       .  S
Zn20         O25   2.040       .  S
Zn20         O27   2.003       .  S
Zn20         O31   1.982       .  S
Zn21         O23   1.947       .  S
Zn21         O26   2.004       .  S
Zn21         O29   2.057       .  S
Zn21         O32   2.047       .  S
Zn22         O23   1.937       .  S
Zn22         O30   2.008       .  S
Zn22         O33   1.973       .  S
Zn22         O34   2.031       .  S
O24          C36   1.275       .  A
O25          C37   1.275       .  A
O26          C38   1.277       .  A
O27          C36   1.270       .  A
O28          C38   1.275       .  A
O29          C37   1.276       .  A
O30          C39   1.271       .  A
O31          C40   1.274       .  A
O32          C39   1.277       .  A
O33          C40   1.271       .  A
O34          C41   1.272       .  A
O35          C41   1.274       .  A
C36         C619   1.477       .  S
C37         C626   1.506       .  S
C38         C726   1.455       .  S
C39         C606   1.477       .  S
C40         C696   1.453       .  S
C41         C639   1.506       .  S
C42          N43   1.355       .  A
C42          N47   1.370       .  A
C42         C636   1.490       .  S
N43          C44   1.353       .  A
C44          N45   1.356       .  A
C44         C589   1.472       .  S
N45          C46   1.360       .  A
C46          N47   1.374       .  A
C46         C596   1.510       .  S
C48          N49   1.356       .  A
C48          N53   1.370       .  A
C48         C629   1.490       .  S
N49          C50   1.354       .  A
C50          N51   1.362       .  A
C50         C569   1.489       .  S
N51          C52   1.365       .  A
C52          N53   1.371       .  A
C52         C579   1.500       .  S
C54          H55   1.093       .  S
C54          C60   1.590       .  S
C54          C59   1.576       .  S
C54          C58   1.566       .  S
C56          H57   1.106       .  S
C56          C62   1.555       .  S
C56          C61   1.570       .  S
C56          C63   1.565       .  S
C58          C61   1.389       .  D
C58         C539   1.544       .  S
C59          C62   1.380       .  D
C59         C576   1.549       .  S
C60          C63   1.396       .  D
C60         C546   1.574       .  S
C61         C599   1.527       .  S
C62         C656   1.522       .  S
C63         C556   1.538       .  S
Zn64         O68   1.938       .  S
Zn64         O69   1.972       .  S
Zn64         O73   2.044       .  S
Zn64         O80   2.019       .  S
Zn65         O68   1.946       .  S
Zn65         O70   2.041       .  S
Zn65         O72   1.976       .  S
Zn65         O76   2.068       .  S
Zn66         O68   1.936       .  S
Zn66         O71   2.044       .  S
Zn66         O74   1.978       .  S
Zn66         O77   1.964       .  S
Zn67         O68   1.939       .  S
Zn67         O75   1.980       .  S
Zn67         O78   2.057       .  S
Zn67         O79   2.018       .  S
O69          C81   1.274       .  A
O70          C82   1.276       .  A
O71          C83   1.273       .  A
O72          C81   1.275       .  A
O73          C83   1.273       .  A
O74          C82   1.268       .  A
O75          C84   1.274       .  A
O76          C85   1.276       .  A
O77          C84   1.273       .  A
O78          C85   1.275       .  A
O79          C86   1.273       .  A
O80          C86   1.273       .  A
C81         C706   1.444       .  S
C82         C506   1.479       .  S
C83         C526   1.504       .  S
C84         C686   1.447       .  S
C85         C669   1.519       .  S
C86         C516   1.472       .  S
C87          N88   1.352       .  A
C87          N92   1.367       .  A
C87         C529   1.487       .  S
N88          C89   1.352       .  A
C89          N90   1.357       .  A
C89         C496   1.468       .  S
N90          C91   1.357       .  A
C91          N92   1.372       .  A
C91         C549   1.494       .  S
C93          N94   1.353       .  A
C93          N98   1.369       .  A
C93         C486   1.485       .  S
N94          C95   1.352       .  A
C95          N96   1.357       .  A
C95         C479   1.480       .  S
N96          C97   1.361       .  A
C97          N98   1.370       .  A
C97         C536   1.489       .  S
Zn99        O103   1.947       .  S
Zn99        O104   1.998       .  S
Zn99        O108   2.044       .  S
Zn99        O115   2.047       .  S
Zn100       O103   1.936       .  S
Zn100       O105   2.015       .  S
Zn100       O107   1.966       .  S
Zn100       O111   2.030       .  S
Zn101       O103   1.944       .  S
Zn101       O106   2.059       .  S
Zn101       O109   2.033       .  S
Zn101       O112   1.968       .  S
Zn102       O103   1.946       .  S
Zn102       O110   1.988       .  S
Zn102       O113   2.054       .  S
Zn102       O114   2.003       .  S
O104        C116   1.276       .  A
O105        C117   1.273       .  A
O106        C118   1.277       .  A
O107        C116   1.272       .  A
O108        C118   1.275       .  A
O109        C117   1.275       .  A
O110        C119   1.275       .  A
O111        C120   1.272       .  A
O112        C119   1.272       .  A
O113        C120   1.276       .  A
O114        C121   1.271       .  A
O115        C121   1.277       .  A
C116        C719   1.449       .  S
C117        C456   1.487       .  S
C118        C469   1.502       .  S
C119        C679   1.448       .  S
C120        C489   1.504       .  S
C121        C446   1.486       .  S
C122        N123   1.370       .  A
C122        N127   1.345       .  A
C122        C466   1.492       .  S
N123        C124   1.378       .  A
C124        N125   1.365       .  A
C124        C559   1.536       .  S
N125        C126   1.360       .  A
C126        N127   1.346       .  A
C126        C436   1.473       .  S
C128        N129   1.352   1_545  A
C128        N133   1.354   1_655  A
C128        C419   1.469       .  S
N129        C130   1.353       .  A
C130        N131   1.354   1_655  A
C130        C409   1.453       .  S
N131        C132   1.354   1_565  A
C132        N133   1.352       .  A
C132        C426   1.456       .  S
Zn134       O138   1.951       .  S
Zn134       O139   2.034       .  S
Zn134       O143   1.990       .  S
Zn134       O150   2.037       .  S
Zn135       O138   1.952       .  S
Zn135       O140   2.060       .  S
Zn135       O142   1.995       .  S
Zn135       O146   1.986       .  S
Zn136       O138   1.946       .  S
Zn136       O141   1.994       .  S
Zn136       O144   2.050       .  S
Zn136       O147   2.045       .  S
Zn137       O138   1.940       .  S
Zn137       O145   1.997       .  S
Zn137       O148   1.978       .  S
Zn137       O149   2.052       .  S
O139        C151   1.276       .  A
O140        C152   1.276       .  A
O141        C153   1.272       .  A
O142        C151   1.271       .  A
O143        C153   1.273       .  A
O144        C152   1.275       .  A
O145        C154   1.272       .  A
O146        C155   1.273       .  A
O147        C154   1.278       .  A
O148        C155   1.271       .  A
O149        C156   1.274       .  A
O150        C156   1.272       .  A
C151        C476   1.478       .  S
C152        C396   1.495       .  S
C153        C429   1.487       .  S
C154        C586   1.490       .  S
C155        C376   1.457       .  S
C156        C389   1.500       .  S
C157        N158   1.368       .  A
C157        N162   1.353       .  A
C157        C399   1.493       .  S
N158        C159   1.373       .  A
C159        N160   1.365       .  A
C159        C366   1.535       .  S
N160        C161   1.362       .  A
C161        N162   1.354       .  A
C161        C459   1.482       .  S
C163        N164   1.366       .  A
C163        N168   1.355       .  A
C163        C346   1.490       .  S
N164        C165   1.371       .  A
C165        N166   1.364       .  A
C165        C359   1.501       .  S
N166        C167   1.363       .  A
C167        N168   1.356       .  A
C167        C449   1.479       .  S
Zn169       O173   1.935       .  S
Zn169       O174   1.986       .  S
Zn169       O178   2.046       .  S
Zn169       O185   1.969       .  S
Zn170       O173   1.934       .  S
Zn170       O175   1.969       .  S
Zn170       O177   1.974       .  S
Zn170       O181   2.031       .  S
Zn171       O173   1.931       .  S
Zn171       O176   2.061       .  S
Zn171       O179   2.010       .  S
Zn171       O182   1.971       .  S
Zn172       O173   1.944       .  S
Zn172       O180   2.021       .  S
Zn172       O183   2.069       .  S
Zn172       O184   2.047       .  S
O174        C186   1.270       .  A
O175        C187   1.269       .  A
O176        C188   1.276       .  A
O177        C186   1.271       .  A
O178        C188   1.274       .  A
O179        C187   1.272       .  A
O180        C189   1.278       .  A
O181        C190   1.272       .  A
O182        C189   1.271       .  A
O183        C190   1.278       .  A
O184        C191   1.279       .  A
O185        C191   1.271       .  A
C186        C329   1.449       .  S
C187        C499   1.469       .  S
C188        C349   1.496       .  S
C189        C416   1.473       .  S
C190        C336   1.496       .  S
C191        C439   1.473       .  S
C192        N193   1.354       .  A
C192        N197   1.374       .  A
C192        C316   1.500       .  S
N193        C194   1.352       .  A
C194        N195   1.358       .  A
C194        C609   1.474       .  S
N195        C196   1.363       .  A
C196        N197   1.378       .  A
C196        C306   1.520       .  S
C198        H199   1.100       .  S
C198        C204   1.574       .  S
C198        C203   1.573       .  S
C198        C202   1.552       .  S
C200        H201   1.082       .  S
C200        C206   1.597       .  S
C200        C205   1.586       .  S
C200        C207   1.572       .  S
C202        C205   1.383       .  D
C202        C289   1.514       .  S
C203        C206   1.396       .  D
C203        C369   1.551       .  S
C204        C207   1.389       .  D
C204        C309   1.535       .  S
C205        C276   1.562       .  S
C206        C356   1.577       .  S
C207        C296   1.553       .  S
Zn208       O212   1.951       .  S
Zn208       O213   2.027       .  S
Zn208       O217   1.975       .  S
Zn208       O224   2.049       .  S
Zn209       O212   1.957       .  S
Zn209       O214   2.044       .  S
Zn209       O216   2.092       .  S
Zn209       O220   2.019       .  S
Zn210       O212   1.949       .  S
Zn210       O215   2.005       .  S
Zn210       O218   2.033       .  S
Zn210       O221   2.045       .  S
Zn211       O212   1.949       .  S
Zn211       O219   2.051       .  S
Zn211       O222   1.952       .  S
Zn211       O223   2.014       .  S
O213        C225   1.269       .  A
O214        C226   1.277       .  A
O215        C227   1.276       .  A
O216        C225   1.279       .  A
O217        C227   1.273       .  A
O218        C226   1.276       .  A
O219        C228   1.275       .  A
O220        C229   1.278       .  A
O221        C228   1.273       .  A
O222        C229   1.268       .  A
O223        C230   1.272       .  A
O224        C230   1.276       .  A
C225        C319   1.535       .  S
C226        C646   1.486       .  S
C227        C406   1.472       .  S
C228        C266   1.505       .  S
C229        C256   1.447       .  S
C230        C566   1.500       .  S
C231        N232   1.353       .  A
C231        N236   1.372       .  A
C231        C269   1.490       .  S
N232        C233   1.351       .  A
C233        N234   1.359       .  A
C233        C509   1.476       .  S
N234        C235   1.363       .  A
C235        N236   1.374       .  A
C235        C279   1.500       .  S
C237        N238   1.355       .  A
C237        N242   1.371       .  A
C237        C339   1.491       .  S
N238        C239   1.353       .  A
C239        N240   1.357       .  A
C239        C519   1.470       .  S
N240        C241   1.360       .  A
C241        N242   1.374       .  A
C241        C286   1.500       .  S
C243        N244   1.356       .  A
C243        N248   1.373       .  A
C243        C386   1.494       .  S
N244        C245   1.352       .  A
C245        N246   1.358       .  A
C245        C616   1.476       .  S
N246        C247   1.363       .  A
C247        N248   1.373       .  A
C247        C299   1.500       .  S
C249        N250   1.349       .  A
C249        N254   1.353       .  A
C249        C326   1.449       .  S
N250        C251   1.351       .  A
C251        N252   1.350       .  A
C251        C259   1.455       .  S
N252        C253   1.352       .  A
C253        N254   1.352       .  A
C253        C379   1.456       .  S
C255        C256   1.406       .  A
C255        C260   1.398       .  A
C255       Br262   1.932       .  S
C256        C257   1.401       .  A
C257        C258   1.399       .  A
C257       Br264   1.931       .  S
C258        C259   1.414       .  A
C258       Br263   1.934       .  S
C259        C260   1.406       .  A
C260       Br261   1.933       .  S
C265        C266   1.419       .  A
C265        C270   1.415       .  A
C265       Br272   1.932       .  S
C266        C267   1.418       .  A
C267        C268   1.417       .  A
C267       Br274   1.930       .  S
C268        C269   1.409       .  A
C268       Br273   1.928       .  S
C269        C270   1.410       .  A
C270       Br271   1.931       .  S
C275        C276   1.429       .  A
C275        C280   1.428       .  A
C275       Br282   1.930       .  S
C276        C277   1.424       .  A
C277        C278   1.413       .  A
C277       Br284   1.919       .  S
C278        C279   1.403       .  A
C278       Br283   1.932       .  S
C279        C280   1.412       .  A
C280       Br281   1.931       .  S
C285        C286   1.417       .  A
C285        C290   1.418       .  A
C285       Br292   1.930       .  S
C286        C287   1.410       .  A
C287        C288   1.416       .  A
C287       Br294   1.931       .  S
C288        C289   1.421       .  A
C288       Br293   1.933       .  S
C289        C290   1.412       .  A
C290       Br291   1.923       .  S
C295        C296   1.420       .  A
C295        C300   1.415       .  A
C295       Br302   1.916       .  S
C296        C297   1.427       .  A
C297        C298   1.424       .  A
C297       Br304   1.917       .  S
C298        C299   1.409       .  A
C298       Br303   1.932       .  S
C299        C300   1.405       .  A
C300       Br301   1.929       .  S
C305        C306   1.414       .  A
C305        C310   1.420       .  A
C305       Br312   1.934       .  S
C306        C307   1.426       .  A
C307        C308   1.422       .  A
C307       Br314   1.930       .  S
C308        C309   1.411       .  A
C308       Br313   1.921       .  S
C309        C310   1.417       .  A
C310       Br311   1.913       .  S
C315        C316   1.405       .  A
C315        C320   1.422       .  A
C315       Br322   1.934       .  S
C316        C317   1.410       .  A
C317        C318   1.421   1_455  A
C317       Br324   1.934       .  S
C318        C319   1.430       .  A
C318       Br323   1.935       .  S
C319        C320   1.439   1_655  A
C320       Br321   1.938       .  S
C325        C326   1.411       .  A
C325        C330   1.400       .  A
C325       Br332   1.933       .  S
C326        C327   1.401       .  A
C327        C328   1.396       .  A
C327       Br334   1.931       .  S
C328        C329   1.407       .  A
C328       Br333   1.930       .  S
C329        C330   1.404       .  A
C330       Br331   1.931       .  S
C335        C336   1.413       .  A
C335        C340   1.417   1_545  A
C335       Br342   1.929       .  S
C336        C337   1.412   1_545  A
C337        C338   1.414       .  A
C337       Br344   1.928       .  S
C338        C339   1.411       .  A
C338       Br343   1.929       .  S
C339        C340   1.412       .  A
C340       Br341   1.928       .  S
C345        C346   1.410       .  A
C345        C350   1.414   1_455  A
C345       Br352   1.929       .  S
C346        C347   1.411       .  A
C347        C348   1.417       .  A
C347       Br354   1.928       .  S
C348        C349   1.413   1_455  A
C348       Br353   1.927       .  S
C349        C350   1.413       .  A
C350       Br351   1.929       .  S
C355        C356   1.442       .  A
C355        C360   1.431       .  A
C355       Br362   1.928       .  S
C356        C357   1.441       .  A
C357        C358   1.404       .  A
C357       Br364   1.929       .  S
C358        C359   1.394       .  A
C358       Br363   1.935       .  S
C359        C360   1.410       .  A
C360       Br361   1.936       .  S
C365        C366   1.432       .  A
C365        C370   1.428       .  A
C365       Br372   1.935       .  S
C366        C367   1.421       .  A
C367        C368   1.418       .  A
C367       Br374   1.942       .  S
C368        C369   1.425       .  A
C368       Br373   1.912       .  S
C369        C370   1.423       .  A
C370       Br371   1.932       .  S
C375        C376   1.410       .  A
C375        C380   1.399       .  A
C375       Br382   1.931       .  S
C376        C377   1.406       .  A
C377        C378   1.400       .  A
C377       Br384   1.935       .  S
C378        C379   1.413       .  A
C378       Br383   1.934       .  S
C379        C380   1.404       .  A
C380       Br381   1.933       .  S
C385        C386   1.411       .  A
C385        C390   1.418   1_565  A
C385       Br392   1.928       .  S
C386        C387   1.413       .  A
C387        C388   1.414       .  A
C387       Br394   1.932       .  S
C388        C389   1.415   1_565  A
C388       Br393   1.933       .  S
C389        C390   1.416       .  A
C390       Br391   1.930       .  S
C395        C396   1.412       .  A
C395        C400   1.418       .  A
C395       Br402   1.927       .  S
C396        C397   1.412       .  A
C397        C398   1.415       .  A
C397       Br404   1.929       .  S
C398        C399   1.411       .  A
C398       Br403   1.929       .  S
C399        C400   1.413       .  A
C400       Br401   1.927       .  S
C405        C406   1.417       .  A
C405        C410   1.402       .  A
C405       Br412   1.935       .  S
C406        C407   1.417       .  A
C407        C408   1.400       .  A
C407       Br414   1.936       .  S
C408        C409   1.401       .  A
C408       Br413   1.932       .  S
C409        C410   1.402       .  A
C410       Br411   1.932       .  S
C415        C416   1.414       .  A
C415        C420   1.405       .  A
C415       Br422   1.934       .  S
C416        C417   1.416       .  A
C417        C418   1.398       .  A
C417       Br424   1.938       .  S
C418        C419   1.409       .  A
C418       Br423   1.937   1_655  S
C419        C420   1.412       .  A
C420       Br421   1.933   1_545  S
C425        C426   1.399       .  A
C425        C430   1.404       .  A
C425       Br432   1.935       .  S
C426        C427   1.401       .  A
C427        C428   1.402       .  A
C427       Br434   1.933       .  S
C428        C429   1.424       .  A
C428       Br433   1.939       .  S
C429        C430   1.427       .  A
C430       Br431   1.938       .  S
C435        C436   1.411   1_556  A
C435        C440   1.401       .  A
C435       Br442   1.934   1_556  S
C436        C437   1.411       .  A
C437        C438   1.410   1_554  A
C437       Br444   1.929       .  S
C438        C439   1.412       .  A
C438       Br443   1.931       .  S
C439        C440   1.410       .  A
C440       Br441   1.935       .  S
C445        C446   1.414       .  A
C445        C450   1.409       .  A
C445       Br452   1.933       .  S
C446        C447   1.415       .  A
C447        C448   1.412       .  A
C447       Br454   1.930       .  S
C448        C449   1.408       .  A
C448       Br453   1.930       .  S
C449        C450   1.409       .  A
C450       Br451   1.931       .  S
C455        C456   1.413       .  A
C455        C460   1.412   1_554  A
C455       Br462   1.930       .  S
C456        C457   1.416       .  A
C457        C458   1.409       .  A
C457       Br464   1.936       .  S
C458        C459   1.411   1_554  A
C458       Br463   1.934       .  S
C459        C460   1.410       .  A
C460       Br461   1.929       .  S
C465        C466   1.412       .  A
C465        C470   1.418   1_655  A
C465       Br472   1.928       .  S
C466        C467   1.414       .  A
C467        C468   1.413       .  A
C467       Br474   1.934       .  S
C468        C469   1.415   1_655  A
C468       Br473   1.932       .  S
C469        C470   1.417       .  A
C470       Br471   1.930       .  S
C475        C476   1.409       .  A
C475        C480   1.405       .  A
C475       Br482   1.932       .  S
C476        C477   1.414       .  A
C477        C478   1.411       .  A
C477       Br484   1.933       .  S
C478        C479   1.411       .  A
C478       Br483   1.931       .  S
C479        C480   1.413       .  A
C480       Br481   1.934       .  S
C485        C486   1.408       .  A
C485        C490   1.414       .  A
C485       Br492   1.931       .  S
C486        C487   1.409       .  A
C487        C488   1.415       .  A
C487       Br494   1.933       .  S
C488        C489   1.422       .  A
C488       Br493   1.934       .  S
C489        C490   1.419       .  A
C490       Br491   1.931       .  S
C495        C496   1.409       .  A
C495        C500   1.402       .  A
C495       Br502   1.933       .  S
C496        C497   1.408       .  A
C497        C498   1.405       .  A
C497       Br504   1.931       .  S
C498        C499   1.412       .  A
C498       Br503   1.933       .  S
C499        C500   1.411       .  A
C500       Br501   1.936       .  S
C505        C506   1.414       .  A
C505        C510   1.409       .  A
C505       Br512   1.932       .  S
C506        C507   1.412       .  A
C507        C508   1.407       .  A
C507       Br514   1.933       .  S
C508        C509   1.410       .  A
C508       Br513   1.932       .  S
C509        C510   1.409       .  A
C510       Br511   1.930       .  S
C515        C516   1.410       .  A
C515        C520   1.407       .  A
C515       Br522   1.930       .  S
C516        C517   1.408       .  A
C517        C518   1.407   1_554  A
C517       Br524   1.929       .  S
C518        C519   1.408       .  A
C518       Br523   1.929       .  S
C519        C520   1.408   1_556  A
C520       Br521   1.930       .  S
C525        C526   1.420       .  A
C525        C530   1.416   1_565  A
C525       Br532   1.930       .  S
C526        C527   1.420   1_565  A
C527        C528   1.414       .  A
C527       Br534   1.933       .  S
C528        C529   1.409       .  A
C528       Br533   1.932       .  S
C529        C530   1.409       .  A
C530       Br531   1.930       .  S
C535        C536   1.402       .  A
C535        C540   1.406       .  A
C535       Br542   1.929       .  S
C536        C537   1.411       .  A
C537        C538   1.421       .  A
C537       Br544   1.931       .  S
C538        C539   1.424       .  A
C538       Br543   1.921       .  S
C539        C540   1.417       .  A
C540       Br541   1.920       .  S
C545        C546   1.447       .  A
C545        C550   1.429       .  A
C545       Br552   1.931       .  S
C546        C547   1.440       .  A
C547        C548   1.401       .  A
C547       Br554   1.926       .  S
C548        C549   1.393       .  A
C548       Br553   1.935       .  S
C549        C550   1.408       .  A
C550       Br551   1.939       .  S
C555        C556   1.421       .  A
C555        C560   1.428       .  A
C555       Br562   1.940       .  S
C556        C557   1.421       .  A
C557        C558   1.416       .  A
C557       Br564   1.914       .  S
C558        C559   1.419       .  A
C558       Br563   1.940       .  S
C559        C560   1.437       .  A
C560       Br561   1.936       .  S
C565        C566   1.418       .  A
C565        C570   1.412       .  A
C565       Br572   1.933       .  S
C566        C567   1.420       .  A
C567        C568   1.414       .  A
C567       Br574   1.934       .  S
C568        C569   1.413       .  A
C568       Br573   1.934       .  S
C569        C570   1.409       .  A
C570       Br571   1.930       .  S
C575        C576   1.422       .  A
C575        C580   1.415       .  A
C575       Br582   1.918       .  S
C576        C577   1.423       .  A
C577        C578   1.422       .  A
C577       Br584   1.930       .  S
C578        C579   1.410       .  A
C578       Br583   1.928       .  S
C579        C580   1.407       .  A
C580       Br581   1.930       .  S
C585        C586   1.421       .  A
C585        C590   1.407       .  A
C585       Br592   1.935       .  S
C586        C587   1.418       .  A
C587        C588   1.409   1_556  A
C587       Br594   1.933       .  S
C588        C589   1.407       .  A
C588       Br593   1.930       .  S
C589        C590   1.404   1_554  A
C590       Br591   1.933   1_556  S
C595        C596   1.411       .  A
C595        C600   1.416       .  A
C595       Br602   1.936       .  S
C596        C597   1.424       .  A
C597        C598   1.416       .  A
C597       Br604   1.927       .  S
C598        C599   1.409       .  A
C598       Br603   1.923       .  S
C599        C600   1.421       .  A
C600       Br601   1.913       .  S
C605        C606   1.409       .  A
C605        C610   1.410   1_554  A
C605       Br612   1.928       .  S
C606        C607   1.410       .  A
C607        C608   1.408       .  A
C607       Br614   1.929       .  S
C608        C609   1.408   1_554  A
C608       Br613   1.929       .  S
C609        C610   1.409       .  A
C610       Br611   1.929       .  S
C615        C616   1.410       .  A
C615        C620   1.412       .  A
C615       Br622   1.928       .  S
C616        C617   1.408       .  A
C617        C618   1.406       .  A
C617       Br624   1.931       .  S
C618        C619   1.411       .  A
C618       Br623   1.933       .  S
C619        C620   1.411       .  A
C620       Br621   1.929       .  S
C625        C626   1.420   1_655  A
C625        C630   1.415       .  A
C625       Br632   1.932       .  S
C626        C627   1.420       .  A
C627        C628   1.417   1_455  A
C627       Br634   1.931       .  S
C628        C629   1.409       .  A
C628       Br633   1.929       .  S
C629        C630   1.410       .  A
C630       Br631   1.932       .  S
C635        C636   1.409       .  A
C635        C640   1.416   1_545  A
C635       Br642   1.929       .  S
C636        C637   1.409       .  A
C637        C638   1.415       .  A
C637       Br644   1.931       .  S
C638        C639   1.420   1_545  A
C638       Br643   1.932       .  S
C639        C640   1.421       .  A
C640       Br641   1.934       .  S
C645        C646   1.411       .  A
C645        C650   1.414   1_556  A
C645       Br652   1.929       .  S
C646        C647   1.412       .  A
C647        C648   1.411       .  A
C647       Br654   1.931       .  S
C648        C649   1.410   1_556  A
C648       Br653   1.930   1_556  S
C649        C650   1.412       .  A
C650       Br651   1.926       .  S
C655        C656   1.413       .  A
C655        C660   1.419       .  A
C655       Br662   1.920       .  S
C656        C657   1.422       .  A
C657        C658   1.421       .  A
C657       Br664   1.936       .  S
C658        C659   1.412       .  A
C658       Br663   1.928       .  S
C659        C660   1.415       .  A
C660       Br661   1.928       .  S
C665        C666   1.411       .  A
C665        C670   1.420       .  A
C665       Br672   1.930       .  S
C666        C667   1.410       .  A
C667        C668   1.420       .  A
C667       Br674   1.928       .  S
C668        C669   1.423       .  A
C668       Br673   1.932       .  S
C669        C670   1.423       .  A
C670       Br671   1.933       .  S
C675        C676   1.406       .  A
C675        C680   1.397       .  A
C675       Br682   1.927       .  S
C676        C677   1.402       .  A
C677        C678   1.398       .  A
C677       Br684   1.931       .  S
C678        C679   1.408       .  A
C678       Br683   1.931       .  S
C679        C680   1.405       .  A
C680       Br681   1.934       .  S
C685        C686   1.406       .  A
C685        C690   1.394       .  A
C685       Br692   1.936       .  S
C686        C687   1.410       .  A
C687        C688   1.398       .  A
C687       Br694   1.933       .  S
C688        C689   1.403       .  A
C688       Br693   1.932       .  S
C689        C690   1.406       .  A
C690       Br691   1.927       .  S
C695        C696   1.408       .  A
C695        C700   1.395       .  A
C695       Br702   1.935       .  S
C696        C697   1.411       .  A
C697        C698   1.400       .  A
C697       Br704   1.932       .  S
C698        C699   1.402       .  A
C698       Br703   1.929       .  S
C699        C700   1.404       .  A
C700       Br701   1.933       .  S
C705        C706   1.407       .  A
C705        C710   1.397       .  A
C705       Br712   1.932       .  S
C706        C707   1.404       .  A
C707        C708   1.395       .  A
C707       Br714   1.933       .  S
C708        C709   1.407       .  A
C708       Br713   1.933       .  S
C709        C710   1.404       .  A
C710       Br711   1.930       .  S
C715        C716   1.407       .  A
C715        C720   1.397       .  A
C715       Br722   1.933       .  S
C716        C717   1.406       .  A
C717        C718   1.399       .  A
C717       Br724   1.932   1_455  S
C718        C719   1.407       .  A
C718       Br723   1.932       .  S
C719        C720   1.405       .  A
C720       Br721   1.932       .  S
C725        C726   1.407       .  A
C725        C730   1.399       .  A
C725       Br732   1.932       .  S
C726        C727   1.407       .  A
C727        C728   1.400       .  A
C727       Br734   1.931       .  S
C728        C729   1.406       .  A
C728       Br733   1.931       .  S
C729        C730   1.408       .  A
C730       Br731   1.933       .  S
