geometry optimzed in LAMMPS
_audit_creation_date              2020-11-30 
_audit_creation_method            'lammps2cif' 
_symmetry_space_group_name_H-M    'P1' 
_symmetry_Int_Tables_number       1 
_symmetry_cell_setting            triclinic 
loop_ 
_symmetry_equiv_pos_as_xyz 
  x,y,z 
_cell_length_a                    52.697196518217034 
_cell_length_b                    54.00418172170271 
_cell_length_c                    33.91994612050563 
_cell_angle_alpha                 90.95684759794959 
_cell_angle_beta                  89.35403530920257 
_cell_angle_gamma                 115.5466863446697 
loop_ 
_atom_site_label 
_atom_site_type_symbol 
_atom_site_fract_x 
_atom_site_fract_y 
_atom_site_fract_z 
_atom_site_charge 
Zr1        Zr  0.27917905  0.43766914  0.63743691     2.17510
O2          O  0.24091010  0.45167270  0.63924497    -0.51750
O3          O  0.30913294  0.46653613  0.58578406    -0.74960
O4          O  0.30098659  0.48080683  0.67280770    -0.81740
O5          O  0.23893699  0.37917485  0.56891592    -0.83490
O6          O  0.29557031  0.47255904  0.73692168    -0.79110
O7          O  0.25237946  0.42487441  0.57794356    -0.90750
O8          O  0.34798051  0.45826150  0.58341319    -0.76710
O9          O  0.32301321  0.44920799  0.66889125    -0.86200
O10         O  0.29884619  0.41185057  0.60194733    -0.85890
O11         O  0.26732177  0.42416110  0.70487455    -0.72650
O12         O  0.24615629  0.39071823  0.64388003    -0.84780
Zr13       Zr  0.29778475  0.36155055  0.70948668     2.26420
Zr14       Zr  0.31188756  0.43568356  0.73651970     2.06270
Zr15       Zr  0.26718171  0.36522174  0.61031909     2.10050
Zr16       Zr  0.34226942  0.42309046  0.63317509     1.78760
O17         O  0.22587067  0.32806577  0.58153788    -0.93590
O18         O  0.38523734  0.46251152  0.65291647    -0.41390
O19         O  0.31092171  0.37508315  0.64185430    -0.78030
O20         O  0.33145416  0.40921685  0.70071979    -0.96710
O21         O  0.27849047  0.38836490  0.74361044    -0.90020
O22         O  0.25453762  0.35064989  0.67732928    -0.92860
C23         C  0.33303397  0.47022356  0.57103092     1.00890
C24         C  0.23788146  0.40179164  0.56086377     1.13820
C25         C  0.29222183  0.48471064  0.70639284     1.04600
O26         O  0.35687553  0.47589924  0.74213625    -0.95010
O27         O  0.33743776  0.41954421  0.78318930    -0.90760
O28         O  0.33346883  0.37856977  0.75839104    -0.83900
C29         C  0.34279106  0.39831426  0.78339108     1.11240
O30         O  0.20141296  0.39716841  0.70531179    -0.96990
Zr31       Zr  0.23499249  0.37730561  0.71079366     1.88940
O32         O  0.25985613  0.32751595  0.75305529    -0.73640
O33         O  0.29942951  0.44171793  0.80415884    -0.52900
O34         O  0.22026037  0.38743738  0.77508014    -0.97580
O35         O  0.19329773  0.34390509  0.67716201    -0.54800
O36         O  0.22291343  0.33829902  0.75294358    -0.74150
C37         C  0.23467466  0.32331975  0.76432917     0.98190
O38         O  0.32067074  0.33552410  0.73949924    -0.62970
O39         O  0.29297896  0.36438216  0.55065208    -0.57780
O40         O  0.30142887  0.33062156  0.65940783    -0.94460
O41         O  0.26524542  0.32082344  0.61822453    -0.92890
O42         O  0.35445036  0.40493815  0.57340616    -0.93240
O43         O  0.38200834  0.41202833  0.64213859    -0.92030
C44         C  0.28106986  0.31376728  0.63862716     1.17030
H45         H  0.30094699  0.41582909  0.57413653     0.32980
H46         H  0.34979660  0.41313078  0.71099087     0.43830
H47         H  0.24218324  0.33129480  0.67873976     0.37350
H48         H  0.25706682  0.43357522  0.71642005     0.33830
H49         H  0.39692713  0.46770426  0.62868988     0.25620
H50         H  0.31037405  0.46153735  0.80998426     0.31560
H51         H  0.20197361  0.37170584  0.78062264     0.37470
H52         H  0.36998513  0.42097350  0.56133819     0.31930
H53         H  0.28768375  0.34468853  0.54537423     0.30930
H54         H  0.23297936  0.32184730  0.55805350     0.32490
H55         H  0.17714257  0.34212928  0.69392033     0.31450
H56         H  0.37372914  0.39364935  0.65425552     0.35450
H57         H  0.30611352  0.32103327  0.75542851     0.28190
H58         H  0.22413332  0.43547461  0.62982017     0.32420
H59         H  0.18451237  0.38524836  0.72051633     0.35270
H60         H  0.28374782  0.36985299  0.52944270     0.27880
H61         H  0.32555931  0.32560179  0.71817824     0.40750
H62         H  0.35489798  0.48991124  0.72563644     0.30810
H63         H  0.37955586  0.47759265  0.65728382     0.38420
H64         H  0.19425800  0.32609289  0.67952358     0.30270
H65         H  0.27965414  0.43905342  0.80273826     0.30340
H66         H  0.23687380  0.45264946  0.66762939     0.30600
Zr67       Zr  0.05719374  0.21626250  0.03674562     2.17510
O68         O  0.04560073  0.25467687  0.04969529    -0.51750
O69         O  0.02441558  0.18215229  0.08173289    -0.74960
O70         O  0.01356142  0.20170847  0.00038402    -0.81740
O71         O  0.11575299  0.25161717  0.10780886    -0.83490
O72         O  0.02252652  0.20401291  0.93573140    -0.79110
O73         O  0.06972364  0.24152265  0.09821336    -0.90750
O74         O  0.03214684  0.14387453  0.07720848    -0.76710
O75         O  0.04498331  0.17343688  0.00386191    -0.86200
O76         O  0.08444652  0.19709976  0.06825532    -0.85890
O77         O  0.07046221  0.22842289  0.96914646    -0.72650
O78         O  0.10522659  0.24871981  0.02644961    -0.84780
Zr79       Zr  0.13380020  0.19750955  0.95634401     2.26420
Zr80       Zr  0.05740452  0.18467458  0.93591565     2.06270
Zr81       Zr  0.13210406  0.22890023  0.05757186     2.10050
Zr82       Zr  0.07312924  0.15483550  0.03491336     1.78760
O83         O  0.17265314  0.27335489  0.06250737    -0.93590
O84         O  0.03885114  0.11045947  0.01036072    -0.41390
O85         O  0.12156825  0.18604893  0.02462332    -0.78030
O86         O  0.08538974  0.16529837  0.96736245    -0.96710
O87         O  0.10592531  0.21628522  0.92502950    -0.90020
O88         O  0.14496453  0.24005318  0.98995381    -0.92860
C89         C  0.01895199  0.15731897  0.09096188     1.00890
C90         C  0.09289595  0.25352746  0.11704641     1.13820
C91         C  0.01088071  0.20960559  0.96598340     1.04600
O92         O  0.01393635  0.14252624  0.93499925    -0.95010
O93         O  0.06988136  0.15650485  0.88854595    -0.90760
O94         O  0.11535364  0.16558909  0.90254179    -0.83900
C95         C  0.09253346  0.15328539  0.88298422     1.11240
O96         O  0.10434855  0.29595777  0.97276501    -0.96990
Zr97       Zr  0.11817958  0.25906364  0.95831722     1.88940
O98         O  0.16297395  0.22875720  0.90358145    -0.73640
O99         O  0.05049414  0.19418003  0.86797362    -0.52900
O100        O  0.09786740  0.26831457  0.89933950    -0.97580
O101        O  0.15790475  0.30248695  0.97537959    -0.54800
O102        O  0.15333485  0.26586475  0.90702272    -0.74150
C103        C  0.16629117  0.25260617  0.89163225     0.98190
O104        O  0.15527969  0.16547747  0.95156674    -0.62970
O105        O  0.14423235  0.21759050  0.12179760    -0.57780
O106        O  0.17987384  0.21723389  0.98574473    -0.94460
O107        O  0.16938191  0.21463523  0.05035571    -0.92890
O108        O  0.08850067  0.14627606  0.09862233    -0.93240
O109        O  0.09051992  0.11979319  0.02969791    -0.92030
C110        C  0.18701160  0.22238411  0.02197293     1.17030
H111        H  0.08016938  0.19445465  0.09607153     0.32980
H112        H  0.08155218  0.14749916  0.95624166     0.43830
H113        H  0.16447703  0.25282386  0.98736101     0.37350
H114        H  0.06167102  0.23957815  0.95983693     0.33830
H115        H  0.03157482  0.09919006  0.03421994     0.25620
H116        H  0.02996542  0.18418538  0.86366240     0.31560
H117        H  0.11381627  0.28314884  0.88584409     0.37470
H118        H  0.07263964  0.12942432  0.10821917     0.31930
H119        H  0.15535754  0.23552540  0.13487410     0.30810
H120        H  0.18604936  0.27019537  0.07960038     0.32490
H121        H  0.16183460  0.31354639  0.95115275     0.31450
H122        H  0.10624980  0.12720228  0.01053736     0.35450
H123        H  0.16290204  0.16550477  0.97812106     0.28190
H124        H  0.02742717  0.24711456  0.06393998     0.32420
H125        H  0.11202680  0.30914556  0.95095807     0.35270
H126        H  0.12627983  0.20964117  0.13668883     0.27880
H127        H  0.13940700  0.14700826  0.94916623     0.40750
H128        H  0.00045580  0.14682270  0.95094013     0.30810
H129        H  0.02291736  0.11392245  0.00118205     0.38420
H130        H  0.17433286  0.29830550  0.97789748     0.30270
H131        H  0.05436534  0.21382644  0.86811580     0.30340
H132        H  0.04185887  0.26025048  0.02359304     0.30600
Zr133      Zr  0.22025054  0.08501993  0.64161085     2.17510
O134        O  0.26194789  0.07734808  0.62949512    -0.51750
O135        O  0.18977312  0.05496503  0.59052564    -0.74960
O136        O  0.20882331  0.04075079  0.67063409    -0.81740
O137        O  0.25236108  0.14648121  0.57391074    -0.83490
O138        O  0.20646678  0.04520524  0.73650171    -0.79110
O139        O  0.24537730  0.10210310  0.58128615    -0.90750
O140        O  0.15017990  0.06146428  0.58892357    -0.76710
O141        O  0.17545552  0.06804341  0.67289481    -0.86200
O142        O  0.19858240  0.11046408  0.61205565    -0.85890
O143        O  0.23063504  0.09504673  0.71039193    -0.72650
O144        O  0.25089758  0.13237133  0.65446366    -0.84780
Zr145      Zr  0.19366429  0.15130638  0.72766900     2.26420
Zr146      Zr  0.18489080  0.07797955  0.74224469     2.06270
Zr147      Zr  0.22793180  0.15766366  0.62688822     2.10050
Zr148      Zr  0.15402242  0.09381684  0.64315824     1.78760
O149        O  0.27080284  0.20041027  0.62566235    -0.93590
O150        O  0.11208651  0.05262875  0.66011497    -0.41390
O151        O  0.18343139  0.14116090  0.65866319    -0.78030
O152        O  0.16269608  0.10388049  0.71250231    -0.96710
O153        O  0.21557153  0.12538897  0.75523782    -0.90020
O154        O  0.23813000  0.16742859  0.69507866    -0.92860
C155        C  0.16593217  0.05048149  0.57530142     1.00890
C156        C  0.25534411  0.12501590  0.56332464     1.13820
C157        C  0.21395767  0.03559504  0.70563033     1.04600
O158        O  0.14352032  0.03400773  0.74340376    -0.95010
O159        O  0.15338275  0.08942546  0.78740081    -0.90760
O160        O  0.18183549  0.13358172  0.79270590    -0.83900
C161        C  0.15823967  0.11384690  0.79949769     1.11240
O162        O  0.29758853  0.12764997  0.71213490    -0.96990
Zr163      Zr  0.26019566  0.14217806  0.72331698     1.88940
O164        O  0.22710637  0.18411335  0.77568549    -0.73640
O165        O  0.19594000  0.07122428  0.80951949    -0.52900
O166        O  0.27136496  0.12752007  0.78568621    -0.97580
O167        O  0.30396252  0.17986033  0.70195446    -0.54800
O168        O  0.26783052  0.17944568  0.76991617    -0.74150
C169        C  0.25295691  0.19073453  0.78515066     0.98190
O170        O  0.14972603  0.15597249  0.72087340    -0.62970
O171        O  0.21607003  0.17306243  0.56558460    -0.57780
O172        O  0.20488637  0.19665329  0.70770294    -0.94460
O173        O  0.20324494  0.18513905  0.64463737    -0.92890
O174        O  0.14186344  0.11304524  0.58586716    -0.93240
O175        O  0.11346517  0.10390554  0.65246397    -0.92030
C176        C  0.21149442  0.20335673  0.67203017     1.17030
H177        H  0.19669969  0.10760852  0.58385058     0.32980
H178        H  0.14433736  0.09936717  0.72364687     0.43830
H179        H  0.24936243  0.18681779  0.69958716     0.37350
H180        H  0.24229232  0.08655899  0.71921643     0.33830
H181        H  0.10039638  0.04795340  0.63603708     0.25620
H182        H  0.18593215  0.05115633  0.81339522     0.31560
H183        H  0.28795794  0.14366091  0.79576058     0.37470
H184        H  0.12688431  0.09713767  0.57237562     0.31930
H185        H  0.23434116  0.18476365  0.55312087     0.30810
H186        H  0.27756136  0.20210703  0.59804578     0.32490
H187        H  0.31477236  0.18730261  0.72649159     0.31450
H188        H  0.10931193  0.10203500  0.68108037     0.35450
H189        H  0.15207719  0.17378681  0.73229796     0.28190
H190        H  0.25579215  0.06097037  0.61201604     0.32420
H191        H  0.31230645  0.13790823  0.73176389     0.35270
H192        H  0.20797969  0.15641981  0.54856369     0.27880
H193        H  0.13518344  0.14147451  0.73670043     0.40750
H194        H  0.14707847  0.02276214  0.72265327     0.30810
H195        H  0.11858172  0.03799394  0.66178151     0.38420
H196        H  0.29858450  0.19436720  0.69341859     0.30270
H197        H  0.21610731  0.07514693  0.80864832     0.30340
H198        H  0.26648875  0.07172335  0.65507245     0.30600
Zr199      Zr  0.33850542  0.07631052  0.36994419     2.17510
O200        O  0.28801986  0.06094561  0.37157567    -0.51750
O201        O  0.34278088  0.04750677  0.42216578    -0.74960
O202        O  0.32246949  0.03295309  0.33416590    -0.81740
O203        O  0.34772176  0.13710073  0.43289790    -0.83490
O204        O  0.32663557  0.03993898  0.26945654    -0.79110
O205        O  0.31720910  0.09248595  0.42200519    -0.90750
O206        O  0.38932629  0.05794989  0.42650784    -0.76710
O207        O  0.37288366  0.06473197  0.33916443    -0.86200
O208        O  0.38038287  0.10344111  0.40506341    -0.85890
O209        O  0.33951329  0.08796409  0.30142274    -0.72650
O210        O  0.34743628  0.12311917  0.36031790    -0.84780
Zr211      Zr  0.42554663  0.15022332  0.29763210     2.26420
Zr212      Zr  0.37509739  0.07683205  0.27052880     2.06270
Zr213      Zr  0.38998661  0.15020893  0.39404857     2.10050
Zr214      Zr  0.41449599  0.09139918  0.37511281     1.78760
O215        O  0.37879600  0.18839900  0.41068468    -0.93590
O216        O  0.42237139  0.05110066  0.35915096    -0.41390
O217        O  0.42536148  0.13900413  0.36563963    -0.78030
O218        O  0.41751635  0.10332702  0.30641070    -0.96710
O219        O  0.38367168  0.12370736  0.26215879    -0.90020
O220        O  0.39106635  0.16190898  0.32660519    -0.92860
C221        C  0.36359110  0.04484242  0.43793637     1.00890
C222        C  0.32447005  0.11596841  0.43904390     1.13820
C223        C  0.31163576  0.02826780  0.29978086     1.04600
O224        O  0.38677589  0.03785174  0.26804083    -0.95010
O225        O  0.41405645  0.09444592  0.22070260    -0.90760
O226        O  0.44145482  0.13907654  0.23693529    -0.83900
C227        C  0.43550365  0.11785778  0.21505509     1.11240
O228        O  0.29801364  0.11785873  0.30064312    -0.96990
Zr229      Zr  0.34877260  0.13450446  0.29269878     1.88940
O230        O  0.42070904  0.18287179  0.25277589    -0.73640
O231        O  0.35812539  0.06784619  0.20288709    -0.52900
O232        O  0.32632376  0.11786711  0.22907413    -0.97580
O233        O  0.33475176  0.17054809  0.31200552    -0.54800
O234        O  0.37387864  0.17119229  0.24833947    -0.74150
C235        C  0.39954676  0.18579323  0.23900696     0.98190
O236        O  0.47626851  0.16451054  0.29447992    -0.62970
O237        O  0.41090250  0.15329611  0.45869791    -0.57780
O238        O  0.45176453  0.19344722  0.33014769    -0.94460
O239        O  0.43140197  0.19396337  0.38932241    -0.92890
O240        O  0.44212707  0.11093927  0.43425038    -0.93240
O241        O  0.46410323  0.10253604  0.36558812    -0.92030
C242        C  0.45055464  0.20487336  0.36299009     1.17030
H243        H  0.37836856  0.09989720  0.43300743     0.32980
H244        H  0.43286285  0.10045602  0.29477156     0.43830
H245        H  0.39590047  0.18121532  0.32407307     0.37350
H246        H  0.32102932  0.07836254  0.29015237     0.33830
H247        H  0.42961472  0.04700866  0.38381686     0.25620
H248        H  0.35230676  0.04797137  0.19846073     0.31560
H249        H  0.32405531  0.13358833  0.21781413     0.37470
H250        H  0.44586117  0.09589365  0.44496762     0.31930
H251        H  0.41829683  0.17293874  0.46628453     0.30810
H252        H  0.38372070  0.19239411  0.43891338     0.32490
H253        H  0.33129283  0.17762176  0.28686971     0.31450
H254        H  0.47291555  0.12225029  0.35888994     0.35450
H255        H  0.48315389  0.17006798  0.32172306     0.28190
H256        H  0.28026396  0.04379208  0.38676433     0.32420
H257        H  0.29201189  0.12669547  0.27967246     0.35270
H258        H  0.39472277  0.14395809  0.47666536     0.27880
H259        H  0.47832475  0.14728143  0.29028700     0.40750
H260        H  0.37160810  0.02339062  0.28324092     0.30810
H261        H  0.40332007  0.03590181  0.35620609     0.38420
H262        H  0.35197307  0.18568722  0.32263734     0.30270
H263        H  0.34034490  0.06991209  0.20331629     0.30340
H264        H  0.28147243  0.05590930  0.34414869     0.30600
Zr265      Zr  0.15292308  0.43930005  0.37392678     2.17510
O266        O  0.20025511  0.44488786  0.38864359    -0.51750
O267        O  0.14938362  0.47179350  0.42093741    -0.74960
O268        O  0.18014702  0.48139224  0.33845458    -0.81740
O269        O  0.13552650  0.37961080  0.44161066    -0.83490
O270        O  0.17352157  0.47205774  0.27346985    -0.79110
O271        O  0.16440241  0.42509610  0.43496772    -0.90750
O272        O  0.10379315  0.46454343  0.42397535    -0.76710
O273        O  0.12259967  0.45362808  0.33957432    -0.86200
O274        O  0.10886267  0.41585462  0.40596810    -0.85890
O275        O  0.15489374  0.42530038  0.30702145    -0.72650
O276        O  0.14139586  0.39156819  0.36795216    -0.84780
Zr277      Zr  0.06712819  0.36708659  0.29647388     2.26420
Zr278      Zr  0.12316609  0.43890120  0.27232788     2.06270
Zr279      Zr  0.09634564  0.36812362  0.39762959     2.10050
Zr280      Zr  0.07856222  0.42989865  0.37194594     1.78760
O281        O  0.10255564  0.32799871  0.41774950    -0.93590
O282        O  0.07366152  0.47088754  0.35281033    -0.41390
O283        O  0.06478607  0.38126147  0.36348999    -0.78030
O284        O  0.07817605  0.41524689  0.30401431    -0.96710
O285        O  0.11178180  0.39097157  0.26575922    -0.90020
O286        O  0.09793168  0.35384808  0.33123278    -0.92860
C287        C  0.12951089  0.47662729  0.43607571     1.00890
C288        C  0.15684890  0.40178792  0.45125776     1.13820
C289        C  0.18967890  0.48374366  0.30305484     1.04600
O290        O  0.11513835  0.47999345  0.26984533    -0.95010
O291        O  0.08717841  0.42226391  0.21928498    -0.90760
O292        O  0.05529827  0.37879835  0.23386450    -0.83900
C293        C  0.06489078  0.39987551  0.21191505     1.11240
O294        O  0.19253638  0.39232409  0.31441062    -0.96990
Zr295      Zr  0.14267184  0.37795358  0.30147730     1.88940
O296        O  0.07348437  0.33456126  0.25013839    -0.73640
O297        O  0.14153206  0.44793151  0.20523441    -0.52900
O298        O  0.16829698  0.39095146  0.23923160    -0.97580
O299        O  0.15288756  0.34094241  0.32562785    -0.54800
O300        O  0.11840912  0.34040757  0.25783093    -0.74150
C301        C  0.09427900  0.32881528  0.24171856     0.98190
O302        O  0.01681258  0.35350686  0.28889936    -0.62970
O303        O  0.07221919  0.36841709  0.45919825    -0.57780
O304        O  0.03875687  0.32389897  0.32775314    -0.94460
O305        O  0.05392042  0.32604973  0.39086416    -0.92890
O306        O  0.04849868  0.41276382  0.42969645    -0.93240
O307        O  0.03017988  0.42144330  0.35853604    -0.92030
C308        C  0.03746766  0.31396568  0.36214720     1.17030
H309        H  0.10982252  0.42035768  0.43375175     0.32980
H310        H  0.06429508  0.41902940  0.29030124     0.43830
H311        H  0.09218359  0.33429842  0.32948507     0.37350
H312        H  0.17402166  0.43297389  0.29751285     0.33830
H313        H  0.06632870  0.47642266  0.37671752     0.25620
H314        H  0.14920101  0.46808864  0.20247924     0.31560
H315        H  0.17192028  0.37502540  0.23136731     0.37470
H316        H  0.04582331  0.42872845  0.44003963     0.31930
H317        H  0.06360691  0.34905554  0.46767978     0.30810
H318        H  0.09468182  0.32412367  0.44480250     0.32490
H319        H  0.15719072  0.33267492  0.30170075     0.31450
H320        H  0.02119221  0.40227250  0.34853523     0.35450
H321        H  0.00888340  0.34955661  0.31591192     0.28190
H322        H  0.20962368  0.46223989  0.40385391     0.32420
H323        H  0.19881768  0.38212667  0.29514578     0.35270
H324        H  0.08746297  0.37795408  0.47844115     0.27880
H325        H  0.01524941  0.37054569  0.28202868     0.40750
H326        H  0.13304714  0.49503096  0.27884099     0.30810
H327        H  0.09318990  0.48523929  0.35010902     0.38420
H328        H  0.13462980  0.32678848  0.33509080     0.30270
H329        H  0.15823027  0.44399716  0.20514590     0.30340
H330        H  0.21017457  0.44750712  0.36304407     0.30600
Zr331      Zr  0.43548471  0.29902372  0.04519272     2.17510
O332        O  0.43770402  0.25623520  0.06194951    -0.51750
O333        O  0.47248306  0.33448606  0.08433136    -0.74960
O334        O  0.47786786  0.30832597  0.00689719    -0.81740
O335        O  0.37829533  0.26319303  0.11603033    -0.83490
O336        O  0.46671306  0.30622165  0.94272401    -0.79110
O337        O  0.42587789  0.28031291  0.11065452    -0.90750
O338        O  0.46208461  0.37115945  0.08719467    -0.76710
O339        O  0.44741110  0.34075257  0.01103037    -0.86200
O340        O  0.41013716  0.32004645  0.07903717    -0.85890
O341        O  0.41997416  0.28474972  0.97839473    -0.72650
O342        O  0.38698316  0.26714801  0.03841874    -0.84780
Zr343      Zr  0.35859677  0.31719299  0.97239192     2.26420
Zr344      Zr  0.43287117  0.32748390  0.94388343     2.06270
Zr345      Zr  0.36193460  0.28854873  0.07229311     2.10050
Zr346      Zr  0.42147895  0.36134198  0.04516817     1.78760
O347        O  0.32394152  0.24556577  0.09357037    -0.93590
O348        O  0.45822787  0.40485667  0.02307963    -0.41390
O349        O  0.37229714  0.33069249  0.03951892    -0.78030
O350        O  0.40771771  0.34938546  0.97822713    -0.96710
O351        O  0.38375251  0.29624855  0.93727656    -0.90020
O352        O  0.34686900  0.27553860  0.00573683    -0.92860
C353        C  0.47726028  0.35883729  0.09643414     1.00890
C354        C  0.40229644  0.26464183  0.12634138     1.13820
C355        C  0.47891321  0.30016031  0.97147876     1.04600
O356        O  0.47360826  0.37193162  0.94365894    -0.95010
O357        O  0.41215030  0.34611853  0.89231046    -0.90760
O358        O  0.37629860  0.35104147  0.92353044    -0.83900
C359        C  0.39218464  0.35407975  0.89382029     1.11240
O360        O  0.38642569  0.21797978  0.98094800    -0.96990
Zr361      Zr  0.37171572  0.25455506  0.97157125     1.88940
O362        O  0.32969384  0.28579897  0.91932323    -0.73640
O363        O  0.44710297  0.32316607  0.87648209    -0.52900
O364        O  0.38791728  0.24400386  0.90868675    -0.97580
O365        O  0.33408382  0.21172996  0.99445438    -0.54800
O366        O  0.33264471  0.24548293  0.92720441    -0.74150
C367        C  0.32234640  0.26025334  0.91056719     0.98190
O368        O  0.33337800  0.34576667  0.96749063    -0.62970
O369        O  0.35910922  0.31128511  0.13368918    -0.57780
O370        O  0.31362720  0.30316847  0.00459769    -0.94460
O371        O  0.31638770  0.28861925  0.06606676    -0.92890
O372        O  0.40631604  0.37313391  0.10790383    -0.93240
O373        O  0.40621102  0.39743112  0.03534206    -0.92030
C374        C  0.30278610  0.29275233  0.03780246     1.17030
H375        H  0.41542336  0.32362621  0.10645975     0.32980
H376        H  0.41266981  0.36710066  0.96671041     0.43830
H377        H  0.32703730  0.26349403  0.00427417     0.37350
H378        H  0.42772067  0.27263084  0.96852804     0.33830
H379        H  0.46432120  0.41641164  0.04725186     0.25620
H380        H  0.46790201  0.33279258  0.87650303     0.31560
H381        H  0.37119846  0.22868840  0.89720135     0.37470
H382        H  0.41858385  0.39294005  0.11178706     0.31930
H383        H  0.33979666  0.30027178  0.14361583     0.30810
H384        H  0.31891578  0.24949288  0.12041704     0.32490
H385        H  0.32571929  0.20103884  0.97014051     0.31450
H386        H  0.38753687  0.38798969  0.02276350     0.35450
H387        H  0.34752409  0.36497638  0.97144663     0.28190
H388        H  0.45567066  0.26071328  0.07552371     0.32420
H389        H  0.37667656  0.20399843  0.96029925     0.35270
H390        H  0.37134357  0.30748327  0.15221784     0.27880
H391        H  0.32739569  0.34453932  0.93967955     0.40750
H392        H  0.48975491  0.36769908  0.94889693     0.30810
H393        H  0.47430511  0.40072269  0.01611693     0.38420
H394        H  0.31937790  0.21674599  0.00524077     0.30270
H395        H  0.44271627  0.30349348  0.87298051     0.30340
H396        H  0.43794758  0.24683431  0.03677828     0.30600
C397        C  0.04754823  0.39707916  0.17662623    -0.00580
C398        C  0.02341711  0.40163116  0.18155950    -0.12450
C399        C  0.50068364  0.39011185  0.15533861     0.01660
C400        C  0.50182957  0.37361669  0.12303003    -0.00660
C401        C  0.02663943  0.37024072  0.11709719    -0.12390
C402        C  0.04926730  0.38170046  0.14354125     0.01540
H403        H  0.02137150  0.41237419  0.20784663     0.14520
H404        H  0.02803863  0.35788165  0.09238253     0.14520
C405        C  0.07339345  0.37596470  0.13766545     0.36180
C406        C  0.47546405  0.39329019  0.16486462     0.36080
N407        N  0.09277794  0.37142245  0.13307160    -0.44170
N408        N  0.45531812  0.39580508  0.17305610    -0.44160
C409        C  0.40256059  0.24491066  0.15528819    -0.00580
C410        C  0.41718865  0.25406002  0.19090095    -0.12450
C411        C  0.41769414  0.23511463  0.21835467     0.01660
C412        C  0.40401533  0.20679285  0.20947553    -0.00660
C413        C  0.39021296  0.19786558  0.17334182    -0.12390
C414        C  0.38943077  0.21661395  0.14625164     0.01540
H415        H  0.42751501  0.27586580  0.19763298     0.14520
H416        H  0.37948986  0.17605363  0.16664989     0.14520
C417        C  0.37554305  0.20636300  0.10895355     0.36180
C418        C  0.43068447  0.24497238  0.25622455     0.36080
N419        N  0.36455199  0.19822066  0.07900569    -0.44170
N420        N  0.44089791  0.25282994  0.28670333    -0.44160
C421        C  0.47333029  0.23243784  0.36984690    -0.00580
C422        C  0.50022734  0.23734630  0.35567883    -0.12450
C423        C  0.02169987  0.26384081  0.35447566     0.01660
C424        C  0.01648054  0.28591356  0.36808702    -0.00660
C425        C  0.49029624  0.28114678  0.38443956    -0.12390
C426        C  0.46857854  0.25451293  0.38540589     0.01540
H427        H  0.00420218  0.22050586  0.34406494     0.14520
H428        H  0.48647163  0.29836162  0.39477258     0.14520
C429        C  0.44130233  0.25092371  0.39954580     0.36180
C430        C  0.04859427  0.26804554  0.33774223     0.36080
N431        N  0.41957111  0.24848609  0.41089481    -0.44170
N432        N  0.07010435  0.27142089  0.32427926    -0.44160
C433        C  0.22113779  0.49669565  0.29850245    -0.00580
C434        C  0.23641129  0.99797492  0.33263190    -0.12450
C435        C  0.26418459  0.00179609  0.33114778     0.01660
C436        C  0.28033640  0.01228487  0.29674234    -0.00660
C437        C  0.26579154  0.01256263  0.26208329    -0.12390
C438        C  0.23617797  0.50339505  0.26231934     0.01540
H439        H  0.22631006  0.99463207  0.36107465     0.14520
H440        H  0.27747408  0.52017536  0.23498053     0.14520
C441        C  0.22217971  0.50211443  0.22555990     0.36180
C442        C  0.27526271  0.99514525  0.36615049     0.36080
N443        N  0.21105606  0.50099854  0.19591583    -0.44170
N444        N  0.28356637  0.98963131  0.39451690    -0.44160
C445        C  0.15649118  0.03199518  0.53920351    -0.00580
C446        C  0.12804078  0.02040961  0.52737710    -0.12450
C447        C  0.11850572  0.50285336  0.49389565     0.01660
C448        C  0.13766589  0.49674555  0.47053753    -0.00660
C449        C  0.16617885  0.00916390  0.48185308    -0.12390
C450        C  0.17556964  0.02603372  0.51547007     0.01540
H451        H  0.11295258  0.02467000  0.54476244     0.14520
H452        H  0.18162053  0.00524984  0.46477814     0.14520
C453        C  0.20518001  0.03663248  0.52439382     0.36180
C454        C  0.08890967  0.49129907  0.48483796     0.36080
N455        N  0.22887807  0.04469363  0.53137619    -0.44170
N456        N  0.06513430  0.48213445  0.47780960    -0.44160
C457        C  0.30546810  0.11954979  0.46843168    -0.00580
C458        C  0.31767766  0.13941440  0.49846734    -0.12450
C459        C  0.30123353  0.14311502  0.52828726     0.01660
C460        C  0.27215982  0.12650750  0.52854533    -0.00660
C461        C  0.25960283  0.10788152  0.49776933    -0.12390
C462        C  0.27586061  0.10441859  0.46744411     0.01540
H463        H  0.34028289  0.15157223  0.49946084     0.14520
H464        H  0.23698323  0.09563987  0.49791151     0.14520
C465        C  0.26100458  0.08594532  0.43569682     0.36180
C466        C  0.31479056  0.16285036  0.55948307     0.36080
N467        N  0.24757635  0.07117137  0.41108645    -0.44170
N468        N  0.32558713  0.17868920  0.58444807    -0.44160
C469        C  0.26713260  0.21228877  0.81627159    -0.00580
C470        C  0.25867948  0.20669508  0.85585172    -0.12450
C471        C  0.27555021  0.22315789  0.88686467     0.01660
C472        C  0.30111872  0.24632793  0.87877974    -0.00660
C473        C  0.30848397  0.25310874  0.83911164    -0.12390
C474        C  0.29202767  0.23620603  0.80811194     0.01540
H475        H  0.23979241  0.18838999  0.86272455     0.14520
H476        H  0.32809080  0.27065468  0.83230830     0.14520
C477        C  0.30162068  0.24328394  0.76803696     0.36180
C478        C  0.26667356  0.21540522  0.92701039     0.36080
N479        N  0.30925632  0.24896839  0.73589645    -0.44170
N480        N  0.25959741  0.20931712  0.95923950    -0.44160
C481        C  0.45648010  0.12228835  0.18267878    -0.00580
C482        C  0.48471061  0.14003899  0.19145228    -0.12450
C483        C  0.00498272  0.15115649  0.16192490     0.01660
C484        C  0.99767204  0.14415701  0.12223328    -0.00660
C485        C  0.47012639  0.12475725  0.11313127    -0.12390
C486        C  0.44946432  0.11385230  0.14305415     0.01540
H487        H  0.49081533  0.14639314  0.22169263     0.14520
H488        H  0.46452159  0.11887081  0.08260704     0.14520
C489        C  0.42112862  0.09532672  0.13219417     0.36180
C490        C  0.03310685  0.17043451  0.17306010     0.36080
N491        N  0.39841450  0.08037061  0.12345600    -0.44170
N492        N  0.05559815  0.18592581  0.18193071    -0.44160
C493        C  0.27185164  0.28058086  0.04123949    -0.00580
C494        C  0.25891399  0.25899458  0.06810430    -0.12450
C495        C  0.23109398  0.23967661  0.06292003     0.01660
C496        C  0.21600023  0.24182692  0.03031536    -0.00660
C497        C  0.22775788  0.26496586  0.00633635    -0.12390
C498        C  0.25517226  0.28462690  0.01198999     0.01540
H499        H  0.27106088  0.25579442  0.09140206     0.14520
H500        H  0.21540600  0.26776644  0.98292390     0.14520
C501        C  0.26530011  0.30831947  0.98684549     0.36180
C502        C  0.21927878  0.21699588  0.08975908     0.36080
N503        N  0.27245965  0.32709209  0.96639629    -0.44170
N504        N  0.20984997  0.19886263  0.11136473    -0.44160
C505        C  0.49825062  0.22962306  0.96315070    -0.00580
C506        C  0.00212236  0.24594848  0.92927900    -0.12450
C507        C  0.99634523  0.26934984  0.93026252     0.01660
C508        C  0.48940175  0.27832814  0.96646321    -0.00660
C509        C  0.48766232  0.26273790  0.99991040    -0.12390
C510        C  0.48809539  0.23726515  0.99757906     0.01540
H511        H  0.01000453  0.24074973  0.90229169     0.14520
H512        H  0.48503545  0.27004802  0.02832941     0.14520
C513        C  0.47792403  0.21983777  0.03162522     0.36180
C514        C  0.99942640  0.28459075  0.89460104     0.36080
N515        N  0.46958901  0.20606745  0.05898528    -0.44170
N516        N  0.00200551  0.29684061  0.86597484    -0.44160
C517        C  0.09218855  0.30872240  0.21009934    -0.00580
C518        C  0.11708763  0.31350747  0.18929465    -0.12450
C519        C  0.11804415  0.29545908  0.16025465     0.01660
C520        C  0.09340453  0.27177941  0.15054728    -0.00660
C521        C  0.06829068  0.26684312  0.17122640    -0.12390
C522        C  0.06754100  0.28498329  0.20099192     0.01540
H523        H  0.13621407  0.33184108  0.19546775     0.14520
H524        H  0.04919315  0.24870037  0.16423766     0.14520
C525        C  0.04165731  0.27830096  0.22245693     0.36180
C526        C  0.14458867  0.30280223  0.14014085     0.36080
N527        N  0.02092619  0.27288435  0.23977029    -0.44170
N528        N  0.16609839  0.30912855  0.12457611    -0.44160
C529        C  0.09540575  0.13677688  0.84997942    -0.00580
C530        C  0.11515139  0.15345810  0.82308683    -0.12450
C531        C  0.13784055  0.14798093  0.81318937     0.01660
C532        C  0.13599397  0.12101271  0.81703557    -0.00660
C533        C  0.11234699  0.10163703  0.83697517    -0.12390
C534        C  0.09324807  0.11005000  0.85599776     0.01540
H535        H  0.11724266  0.17422226  0.81916086     0.14520
H536        H  0.11039097  0.08102843  0.84108390     0.14520
C537        C  0.07343991  0.09215790  0.88423658     0.36180
C538        C  0.16353525  0.17208077  0.80541248     0.36080
N539        N  0.05764516  0.07786582  0.90706301    -0.44170
N540        N  0.18304988  0.19265459  0.80054817    -0.44160
C541        C  0.34280116  0.48838108  0.53601715    -0.00580
C542        C  0.36531758  0.01459990  0.53919372    -0.12450
C543        C  0.37265747  0.03314177  0.50758144     0.01660
C544        C  0.35745373  0.02553379  0.47174458    -0.00660
C545        C  0.33542858  0.99903401  0.46846101    -0.12390
C546        C  0.32806259  0.48058662  0.49996714     0.01540
H547        H  0.37654154  0.02096863  0.56687293     0.14520
H548        H  0.32402632  0.49261972  0.44101489     0.14520
C549        C  0.30545032  0.45350671  0.49442325     0.36180
C550        C  0.39468724  0.06044528  0.51358236     0.36080
N551        N  0.28746154  0.43175906  0.48982010    -0.44170
N552        N  0.41221605  0.08238956  0.51858468    -0.44160
C553        C  0.23223990  0.02057836  0.70865416    -0.00580
C554        C  0.24467572  0.01697719  0.67346832    -0.12450
C555        C  0.26680861  0.50940415  0.67307239     0.01660
C556        C  0.27452306  0.50039399  0.70810650    -0.00660
C557        C  0.26135069  0.00269622  0.74359002    -0.12390
C558        C  0.24117443  0.01354622  0.74431997     0.01540
H559        H  0.23800014  0.02129822  0.64541970     0.14520
H560        H  0.26673946  0.99597692  0.77087586     0.14520
C561        C  0.22986132  0.01678546  0.78192088     0.36180
C562        C  0.28065989  0.51104418  0.63544856     0.36080
N563        N  0.22092036  0.01941900  0.81220019    -0.44170
N564        N  0.29145990  0.51255708  0.60509904    -0.44160
C565        C  0.27139351  0.28456594  0.64460017    -0.00580
C566        C  0.26645249  0.27648834  0.68383912    -0.12450
C567        C  0.24619496  0.25070394  0.69362146     0.01660
C568        C  0.23173983  0.23158673  0.66326330    -0.00660
C569        C  0.23874787  0.23898681  0.62368856    -0.12390
C570        C  0.25825968  0.26542141  0.61417034     0.01540
H571        H  0.27583040  0.29146286  0.70725200     0.14520
H572        H  0.22842194  0.22445450  0.60006736     0.14520
C573        C  0.26353631  0.27290138  0.57319301     0.36180
C574        C  0.23968616  0.24586290  0.73508198     0.36080
N575        N  0.26775020  0.27889420  0.54035575    -0.44170
N576        N  0.23460016  0.24271392  0.76839668    -0.44160
C577        C  0.38319082  0.36553337  0.86022426    -0.00580
C578        C  0.35382089  0.35441878  0.85600919    -0.12450
C579        C  0.34102510  0.36851448  0.83715858     0.01660
C580        C  0.35731018  0.39245048  0.81618749    -0.00660
C581        C  0.38691060  0.40313820  0.81778222    -0.12390
C582        C  0.39995135  0.39045614  0.84126694     0.01540
H583        H  0.34047773  0.33541614  0.87063347     0.14520
H584        H  0.39967845  0.42098618  0.80053374     0.14520
C585        C  0.43005181  0.40342261  0.84609609     0.36180
C586        C  0.31068584  0.35761827  0.83897741     0.36080
N587        N  0.45421166  0.41389848  0.85008130    -0.44170
N588        N  0.28648410  0.34933968  0.84079468    -0.44160
C589        C  0.18442962  0.26582861  0.85615372    -0.00580
C590        C  0.17180543  0.27372104  0.82580635    -0.12450
C591        C  0.18742785  0.29027400  0.79462741     0.01660
C592        C  0.21730573  0.30057237  0.79294680    -0.00660
C593        C  0.22987944  0.29092144  0.82192474    -0.12390
C594        C  0.21378675  0.27379819  0.85323193     0.01540
H595        H  0.14925288  0.26734352  0.82696713     0.14520
H596        H  0.25241882  0.29756370  0.82115349     0.14520
C597        C  0.22808477  0.26604767  0.88315438     0.36180
C598        C  0.17146268  0.29615530  0.76495882     0.36080
N599        N  0.23960644  0.25985117  0.90714573    -0.44170
N600        N  0.15781003  0.30028511  0.74187181    -0.44160
C601        C  0.21724773  0.40116376  0.53186696    -0.00580
C602        C  0.20620814  0.42053099  0.53648112    -0.12450
C603        C  0.18540759  0.42024139  0.51159056     0.01660
C604        C  0.17532319  0.40028764  0.48148547    -0.00660
C605        C  0.18591663  0.38068044  0.47684122    -0.12390
C606        C  0.20701910  0.38107063  0.50154141     0.01540
H607        H  0.21352163  0.43582337  0.55994951     0.14520
H608        H  0.17856519  0.36582393  0.45275860     0.14520
C609        C  0.21862496  0.36163755  0.49359994     0.36180
C610        C  0.17430009  0.44020514  0.51808505     0.36080
N611        N  0.22787957  0.34609043  0.48684038    -0.44170
N612        N  0.16532549  0.45610645  0.52351503    -0.44160
Zr613      Zr  0.27917906  0.93766912  0.63743688     2.17510
O614        O  0.24091009  0.95167264  0.63924491    -0.51750
O615        O  0.30913297  0.96653612  0.58578404    -0.74960
O616        O  0.30098656  0.98080682  0.67280766    -0.81740
O617        O  0.23893701  0.87917483  0.56891592    -0.83490
O618        O  0.29557029  0.97255903  0.73692164    -0.79110
O619        O  0.25237950  0.92487439  0.57794351    -0.90750
O620        O  0.34798054  0.95826150  0.58341319    -0.76710
O621        O  0.32301323  0.94920799  0.66889123    -0.86200
O622        O  0.29884622  0.91185056  0.60194731    -0.85890
O623        O  0.26732177  0.92416109  0.70487452    -0.72650
O624        O  0.24615631  0.89071821  0.64388000    -0.84780
Zr625      Zr  0.29778477  0.86155056  0.70948669     2.26420
Zr626      Zr  0.31188756  0.93568357  0.73651968     2.06270
Zr627      Zr  0.26718175  0.86522173  0.61031908     2.10050
Zr628      Zr  0.34226944  0.92309046  0.63317509     1.78760
O629        O  0.22587074  0.82806575  0.58153781    -0.93590
O630        O  0.38523736  0.96251153  0.65291649    -0.41390
O631        O  0.31092174  0.87508315  0.64185431    -0.78030
O632        O  0.33145418  0.90921685  0.70071980    -0.96710
O633        O  0.27849048  0.88836490  0.74361042    -0.90020
O634        O  0.25453765  0.85064988  0.67732927    -0.92860
C635        C  0.33303400  0.97022356  0.57103091     1.00890
C636        C  0.23788148  0.90179161  0.56086375     1.13820
C637        C  0.29222180  0.98471063  0.70639280     1.04600
O638        O  0.35687552  0.97589925  0.74213623    -0.95010
O639        O  0.33743776  0.91954422  0.78318930    -0.90760
O640        O  0.33346886  0.87856979  0.75839105    -0.83900
C641        C  0.34279107  0.89831428  0.78339108     1.11240
O642        O  0.20141296  0.89716838  0.70531173    -0.96990
Zr643      Zr  0.23499251  0.87730559  0.71079363     1.88940
O644        O  0.25985616  0.82751597  0.75305531    -0.73640
O645        O  0.29942950  0.94171794  0.80415882    -0.52900
O646        O  0.22026037  0.88743738  0.77508010    -0.97580
O647        O  0.19329776  0.84390506  0.67716198    -0.54800
O648        O  0.22291345  0.83829901  0.75294357    -0.74150
C649        C  0.23467468  0.82331976  0.76432918     0.98190
O650        O  0.32067077  0.83552412  0.73949927    -0.62970
O651        O  0.29297902  0.86438217  0.55065209    -0.57780
O652        O  0.30142888  0.83062154  0.65940787    -0.94460
O653        O  0.26524545  0.82082342  0.61822455    -0.92890
O654        O  0.35445040  0.90493816  0.57340617    -0.93240
O655        O  0.38200837  0.91202834  0.64213862    -0.92030
C656        C  0.28106988  0.81376726  0.63862720     1.17030
H657        H  0.30094702  0.91582908  0.57413652     0.32980
H658        H  0.34979662  0.91313080  0.71099088     0.43830
H659        H  0.24218327  0.83129479  0.67873975     0.37350
H660        H  0.25706682  0.93357521  0.71642001     0.33830
H661        H  0.39692715  0.96770428  0.62868990     0.25620
H662        H  0.31037404  0.96153737  0.80998423     0.31560
H663        H  0.20197361  0.87170582  0.78062260     0.37470
H664        H  0.36998518  0.92097351  0.56133821     0.31930
H665        H  0.28768388  0.84468855  0.54537429     0.30930
H666        H  0.23297947  0.82184729  0.55805345     0.32490
H667        H  0.17714258  0.84212924  0.69392030     0.31450
H668        H  0.37372918  0.89364937  0.65425556     0.35450
H669        H  0.30611355  0.82103328  0.75542852     0.28190
H670        H  0.22413331  0.93547453  0.62982014     0.32420
H671        H  0.18451237  0.88524833  0.72051627     0.35270
H672        H  0.28374784  0.86985292  0.52944269     0.27880
H673        H  0.32555936  0.82560182  0.71817826     0.40750
H674        H  0.35489797  0.98991125  0.72563643     0.30810
H675        H  0.37955588  0.97759265  0.65728383     0.38420
H676        H  0.19425803  0.82609286  0.67952356     0.30270
H677        H  0.27965413  0.93905343  0.80273824     0.30340
H678        H  0.23687380  0.95264942  0.66762933     0.30600
Zr679      Zr  0.05719375  0.71626250  0.03674562     2.17510
O680        O  0.04560074  0.75467687  0.04969529    -0.51750
O681        O  0.02441559  0.68215229  0.08173288    -0.74960
O682        O  0.01356144  0.70170847  0.00038401    -0.81740
O683        O  0.11575300  0.75161716  0.10780887    -0.83490
O684        O  0.02252653  0.70401291  0.93573139    -0.79110
O685        O  0.06972364  0.74152265  0.09821336    -0.90750
O686        O  0.03214685  0.64387453  0.07720848    -0.76710
O687        O  0.04498332  0.67343688  0.00386191    -0.86200
O688        O  0.08444653  0.69709976  0.06825532    -0.85890
O689        O  0.07046223  0.72842289  0.96914646    -0.72650
O690        O  0.10522660  0.74871981  0.02644961    -0.84780
Zr691      Zr  0.13380021  0.69750954  0.95634401     2.26420
Zr692      Zr  0.05740454  0.68467458  0.93591565     2.06270
Zr693      Zr  0.13210407  0.72890023  0.05757186     2.10050
Zr694      Zr  0.07312924  0.65483550  0.03491337     1.78760
O695        O  0.17265315  0.77335489  0.06250736    -0.93590
O696        O  0.03885114  0.61045947  0.01036071    -0.41390
O697        O  0.12156825  0.68604893  0.02462332    -0.78030
O698        O  0.08538975  0.66529837  0.96736245    -0.96710
O699        O  0.10592533  0.71628522  0.92502950    -0.90020
O700        O  0.14496455  0.74005317  0.98995381    -0.92860
C701        C  0.01895199  0.65731896  0.09096188     1.00890
C702        C  0.09289595  0.75352745  0.11704641     1.13820
C703        C  0.01088072  0.70960560  0.96598339     1.04600
O704        O  0.01393636  0.64252625  0.93499924    -0.95010
O705        O  0.06988137  0.65650485  0.88854596    -0.90760
O706        O  0.11535365  0.66558908  0.90254180    -0.83900
C707        C  0.09253347  0.65328539  0.88298423     1.11240
O708        O  0.10434856  0.79595777  0.97276499    -0.96990
Zr709      Zr  0.11817960  0.75906363  0.95831722     1.88940
O710        O  0.16297397  0.72875720  0.90358146    -0.73640
O711        O  0.05049416  0.69418003  0.86797362    -0.52900
O712        O  0.09786742  0.76831457  0.89933949    -0.97580
O713        O  0.15790476  0.80248695  0.97537961    -0.54800
O714        O  0.15333487  0.76586475  0.90702274    -0.74150
C715        C  0.16629120  0.75260618  0.89163226     0.98190
O716        O  0.15527970  0.66547747  0.95156674    -0.62970
O717        O  0.14423237  0.71759052  0.12179760    -0.57780
O718        O  0.17987386  0.71723388  0.98574474    -0.94460
O719        O  0.16938190  0.71463521  0.05035571    -0.92890
O720        O  0.08850068  0.64627606  0.09862234    -0.93240
O721        O  0.09051993  0.61979318  0.02969791    -0.92030
C722        C  0.18701160  0.72238409  0.02197294     1.17030
H723        H  0.08016939  0.69445465  0.09607154     0.32980
H724        H  0.08155219  0.64749916  0.95624167     0.43830
H725        H  0.16447704  0.75282385  0.98736101     0.37350
H726        H  0.06167103  0.73957815  0.95983693     0.33830
H727        H  0.03157483  0.59919006  0.03421994     0.25620
H728        H  0.02996544  0.68418538  0.86366240     0.31560
H729        H  0.11381629  0.78314883  0.88584408     0.37470
H730        H  0.07263964  0.62942432  0.10821917     0.31930
H731        H  0.15535755  0.73552541  0.13487410     0.30810
H732        H  0.18604937  0.77019537  0.07960037     0.32490
H733        H  0.16183461  0.81354639  0.95115277     0.31450
H734        H  0.10624981  0.62720228  0.01053737     0.35450
H735        H  0.16290205  0.66550477  0.97812106     0.28190
H736        H  0.02742718  0.74711456  0.06393998     0.32420
H737        H  0.11202681  0.80914556  0.95095805     0.35270
H738        H  0.12627986  0.70964118  0.13668883     0.27880
H739        H  0.13940702  0.64700826  0.94916623     0.40750
H740        H  0.00045581  0.64682271  0.95094012     0.30810
H741        H  0.02291737  0.61392245  0.00118205     0.38420
H742        H  0.17433287  0.79830550  0.97789751     0.30270
H743        H  0.05436536  0.71382644  0.86811579     0.30340
H744        H  0.04185888  0.76025048  0.02359304     0.30600
Zr745      Zr  0.22025054  0.58501995  0.64161082     2.17510
O746        O  0.26194790  0.57734812  0.62949505    -0.51750
O747        O  0.18977311  0.55496504  0.59052563    -0.74960
O748        O  0.20882336  0.54075082  0.67063406    -0.81740
O749        O  0.25236104  0.64648124  0.57391071    -0.83490
O750        O  0.20646681  0.54520526  0.73650168    -0.79110
O751        O  0.24537728  0.60210314  0.58128612    -0.90750
O752        O  0.15017989  0.56146429  0.58892358    -0.76710
O753        O  0.17545553  0.56804342  0.67289481    -0.86200
O754        O  0.19858238  0.61046409  0.61205565    -0.85890
O755        O  0.23063504  0.59504676  0.71039190    -0.72650
O756        O  0.25089757  0.63237136  0.65446363    -0.84780
Zr757      Zr  0.19366428  0.65130639  0.72766901     2.26420
Zr758      Zr  0.18489082  0.57797956  0.74224469     2.06270
Zr759      Zr  0.22793178  0.65766368  0.62688821     2.10050
Zr760      Zr  0.15402240  0.59381684  0.64315825     1.78760
O761        O  0.27080281  0.70041030  0.62566234    -0.93590
O762        O  0.11208651  0.55262874  0.66011499    -0.41390
O763        O  0.18343136  0.64116090  0.65866320    -0.78030
O764        O  0.16269608  0.60388049  0.71250232    -0.96710
O765        O  0.21557154  0.62538898  0.75523781    -0.90020
O766        O  0.23812998  0.66742861  0.69507866    -0.92860
C767        C  0.16593216  0.55048150  0.57530142     1.00890
C768        C  0.25534408  0.62501593  0.56332460     1.13820
C769        C  0.21395771  0.53559507  0.70563031     1.04600
O770        O  0.14352034  0.53400773  0.74340375    -0.95010
O771        O  0.15338276  0.58942545  0.78740082    -0.90760
O772        O  0.18183550  0.63358171  0.79270591    -0.83900
C773        C  0.15823968  0.61384690  0.79949771     1.11240
O774        O  0.29758853  0.62765001  0.71213484    -0.96990
Zr775      Zr  0.26019566  0.64217809  0.72331696     1.88940
O776        O  0.22710636  0.68411335  0.77568550    -0.73640
O777        O  0.19594003  0.57122429  0.80951948    -0.52900
O778        O  0.27136499  0.62752009  0.78568616    -0.97580
O779        O  0.30396251  0.67986037  0.70195442    -0.54800
O780        O  0.26783052  0.67944570  0.76991616    -0.74150
C781        C  0.25295691  0.69073454  0.78515066     0.98190
O782        O  0.14972600  0.65597247  0.72087344    -0.62970
O783        O  0.21606998  0.67306245  0.56558462    -0.57780
O784        O  0.20488632  0.69665329  0.70770297    -0.94460
O785        O  0.20324489  0.68513904  0.64463740    -0.92890
O786        O  0.14186340  0.61304523  0.58586719    -0.93240
O787        O  0.11346515  0.60390552  0.65246401    -0.92030
C788        C  0.21149438  0.70335673  0.67203020     1.17030
H789        H  0.19669967  0.60760853  0.58385058     0.32980
H790        H  0.14433736  0.59936716  0.72364688     0.43830
H791        H  0.24936240  0.68681781  0.69958715     0.37350
H792        H  0.24229233  0.58655902  0.71921640     0.33830
H793        H  0.10039637  0.54795339  0.63603711     0.25620
H794        H  0.18593218  0.55115634  0.81339521     0.31560
H795        H  0.28795796  0.64366094  0.79576053     0.37470
H796        H  0.12688428  0.59713766  0.57237565     0.31930
H797        H  0.23434110  0.68476367  0.55312087     0.30810
H798        H  0.27756131  0.70210707  0.59804576     0.32490
H799        H  0.31477235  0.68730265  0.72649154     0.31450
H800        H  0.10931191  0.60203497  0.68108040     0.35450
H801        H  0.15207715  0.67378678  0.73229802     0.28190
H802        H  0.25579216  0.56097041  0.61201598     0.32420
H803        H  0.31230646  0.63790827  0.73176382     0.35270
H804        H  0.20797963  0.65641983  0.54856370     0.27880
H805        H  0.13518342  0.64147449  0.73670046     0.40750
H806        H  0.14707850  0.52276214  0.72265327     0.30810
H807        H  0.11858173  0.53799394  0.66178152     0.38420
H808        H  0.29858448  0.69436724  0.69341857     0.30270
H809        H  0.21610734  0.57514693  0.80864829     0.30340
H810        H  0.26648878  0.57172340  0.65507238     0.30600
Zr811      Zr  0.33850540  0.57631053  0.36994420     2.17510
O812        O  0.28801984  0.56094564  0.37157565    -0.51750
O813        O  0.34278084  0.54750678  0.42216579    -0.74960
O814        O  0.32246946  0.53295310  0.33416591    -0.81740
O815        O  0.34772173  0.63710074  0.43289788    -0.83490
O816        O  0.32663555  0.53993899  0.26945655    -0.79110
O817        O  0.31720907  0.59248597  0.42200518    -0.90750
O818        O  0.38932625  0.55794989  0.42650785    -0.76710
O819        O  0.37288364  0.56473197  0.33916444    -0.86200
O820        O  0.38038285  0.60344111  0.40506342    -0.85890
O821        O  0.33951328  0.58796410  0.30142274    -0.72650
O822        O  0.34743627  0.62311918  0.36031789    -0.84780
Zr823      Zr  0.42554662  0.65022332  0.29763212     2.26420
Zr824      Zr  0.37509737  0.57683205  0.27052881     2.06270
Zr825      Zr  0.38998659  0.65020894  0.39404858     2.10050
Zr826      Zr  0.41449596  0.59139917  0.37511282     1.78760
O827        O  0.37879600  0.68839901  0.41068471    -0.93590
O828        O  0.42237136  0.55110065  0.35915098    -0.41390
O829        O  0.42536146  0.63900412  0.36563964    -0.78030
O830        O  0.41751633  0.60332701  0.30641072    -0.96710
O831        O  0.38367167  0.62370736  0.26215880    -0.90020
O832        O  0.39106634  0.66190899  0.32660519    -0.92860
C833        C  0.36359106  0.54484243  0.43793638     1.00890
C834        C  0.32447002  0.61596843  0.43904388     1.13820
C835        C  0.31163574  0.52826780  0.29978087     1.04600
O836        O  0.38677587  0.53785174  0.26804085    -0.95010
O837        O  0.41405644  0.59444592  0.22070261    -0.90760
O838        O  0.44145482  0.63907653  0.23693531    -0.83900
C839        C  0.43550365  0.61785777  0.21505510     1.11240
O840        O  0.29801363  0.61785875  0.30064310    -0.96990
Zr841      Zr  0.34877259  0.63450447  0.29269878     1.88940
O842        O  0.42070905  0.68287179  0.25277590    -0.73640
O843        O  0.35812538  0.56784618  0.20288710    -0.52900
O844        O  0.32632377  0.61786712  0.22907412    -0.97580
O845        O  0.33475176  0.67054811  0.31200551    -0.54800
O846        O  0.37387865  0.67119230  0.24833948    -0.74150
C847        C  0.39954677  0.68579324  0.23900696     0.98190
O848        O  0.47626851  0.66451053  0.29447994    -0.62970
O849        O  0.41090248  0.65329610  0.45869792    -0.57780
O850        O  0.45176453  0.69344722  0.33014770    -0.94460
O851        O  0.43140196  0.69396338  0.38932242    -0.92890
O852        O  0.44212704  0.61093927  0.43425040    -0.93240
O853        O  0.46410320  0.60253603  0.36558815    -0.92030
C854        C  0.45055463  0.70487336  0.36299010     1.17030
H855        H  0.37836853  0.59989720  0.43300744     0.32980
H856        H  0.43286284  0.60045601  0.29477158     0.43830
H857        H  0.39590046  0.68121533  0.32407307     0.37350
H858        H  0.32102931  0.57836255  0.29015236     0.33830
H859        H  0.42961468  0.54700865  0.38381688     0.25620
H860        H  0.35230675  0.54797136  0.19846074     0.31560
H861        H  0.32405532  0.63358835  0.21781411     0.37470
H862        H  0.44586114  0.59589364  0.44496764     0.31930
H863        H  0.41829683  0.67293873  0.46628452     0.30810
H864        H  0.38372071  0.69239412  0.43891340     0.32490
H865        H  0.33129285  0.67762178  0.28686970     0.31450
H866        H  0.47291553  0.62225027  0.35888996     0.35450
H867        H  0.48315388  0.67006797  0.32172309     0.28190
H868        H  0.28026393  0.54379211  0.38676431     0.32420
H869        H  0.29201189  0.62669549  0.27967243     0.35270
H870        H  0.39472274  0.64395810  0.47666537     0.27880
H871        H  0.47832474  0.64728142  0.29028702     0.40750
H872        H  0.37160808  0.52339062  0.28324093     0.30810
H873        H  0.40332003  0.53590180  0.35620611     0.38420
H874        H  0.35197307  0.68568723  0.32263735     0.30270
H875        H  0.34034489  0.56991209  0.20331630     0.30340
H876        H  0.28147241  0.55590933  0.34414866     0.30600
Zr877      Zr  0.15292309  0.93930004  0.37392679     2.17510
O878        O  0.20025512  0.94488785  0.38864363    -0.51750
O879        O  0.14938363  0.97179349  0.42093742    -0.74960
O880        O  0.18014704  0.98139223  0.33845460    -0.81740
O881        O  0.13552650  0.87961078  0.44161067    -0.83490
O882        O  0.17352158  0.97205773  0.27346986    -0.79110
O883        O  0.16440242  0.92509607  0.43496773    -0.90750
O884        O  0.10379316  0.96454342  0.42397536    -0.76710
O885        O  0.12259968  0.95362807  0.33957433    -0.86200
O886        O  0.10886268  0.91585460  0.40596811    -0.85890
O887        O  0.15489375  0.92530036  0.30702147    -0.72650
O888        O  0.14139587  0.89156817  0.36795217    -0.84780
Zr889      Zr  0.06712820  0.86708658  0.29647389     2.26420
Zr890      Zr  0.12316611  0.93890119  0.27232789     2.06270
Zr891      Zr  0.09634565  0.86812361  0.39762960     2.10050
Zr892      Zr  0.07856223  0.92989864  0.37194595     1.78760
O893        O  0.10255564  0.82799869  0.41774951    -0.93590
O894        O  0.07366153  0.97088753  0.35281034    -0.41390
O895        O  0.06478608  0.88126146  0.36349000    -0.78030
O896        O  0.07817606  0.91524688  0.30401432    -0.96710
O897        O  0.11178181  0.89097156  0.26575922    -0.90020
O898        O  0.09793169  0.85384807  0.33123279    -0.92860
C899        C  0.12951090  0.97662728  0.43607572     1.00890
C900        C  0.15684891  0.90178789  0.45125776     1.13820
C901        C  0.18967892  0.98374365  0.30305486     1.04600
O902        O  0.11513837  0.97999344  0.26984534    -0.95010
O903        O  0.08717843  0.92226390  0.21928499    -0.90760
O904        O  0.05529828  0.87879834  0.23386450    -0.83900
C905        C  0.06489080  0.89987550  0.21191506     1.11240
O906        O  0.19253639  0.89232408  0.31441062    -0.96990
Zr907      Zr  0.14267185  0.87795357  0.30147731     1.88940
O908        O  0.07348438  0.83456125  0.25013840    -0.73640
O909        O  0.14153207  0.94793151  0.20523443    -0.52900
O910        O  0.16829698  0.89095144  0.23923161    -0.97580
O911        O  0.15288757  0.84094240  0.32562786    -0.54800
O912        O  0.11840913  0.84040755  0.25783094    -0.74150
C913        C  0.09427900  0.82881527  0.24171857     0.98190
O914        O  0.01681259  0.85350685  0.28889936    -0.62970
O915        O  0.07221920  0.86841708  0.45919826    -0.57780
O916        O  0.03875689  0.82389896  0.32775314    -0.94460
O917        O  0.05392043  0.82604972  0.39086416    -0.92890
O918        O  0.04849870  0.91276381  0.42969646    -0.93240
O919        O  0.03017990  0.92144329  0.35853605    -0.92030
C920        C  0.03746767  0.81396567  0.36214720     1.17030
H921        H  0.10982253  0.92035767  0.43375176     0.32980
H922        H  0.06429509  0.91902939  0.29030125     0.43830
H923        H  0.09218360  0.83429841  0.32948508     0.37350
H924        H  0.17402167  0.93297387  0.29751287     0.33830
H925        H  0.06632871  0.97642265  0.37671753     0.25620
H926        H  0.14920103  0.96808864  0.20247926     0.31560
H927        H  0.17192029  0.87502539  0.23136732     0.37470
H928        H  0.04582333  0.92872844  0.44003964     0.31930
H929        H  0.06360691  0.84905553  0.46767978     0.30810
H930        H  0.09468182  0.82412365  0.44480251     0.32490
H931        H  0.15719073  0.83267491  0.30170077     0.31450
H932        H  0.02119222  0.90227249  0.34853524     0.35450
H933        H  0.00888341  0.84955660  0.31591192     0.28190
H934        H  0.20962369  0.96223988  0.40385394     0.32420
H935        H  0.19881769  0.88212666  0.29514579     0.35270
H936        H  0.08746298  0.87795407  0.47844116     0.27880
H937        H  0.01524942  0.87054569  0.28202869     0.40750
H938        H  0.13304716  0.99503095  0.27884100     0.30810
H939        H  0.09318991  0.98523928  0.35010903     0.38420
H940        H  0.13462981  0.82678848  0.33509082     0.30270
H941        H  0.15823028  0.94399716  0.20514591     0.30340
H942        H  0.21017459  0.94750710  0.36304411     0.30600
Zr943      Zr  0.43548471  0.79902372  0.04519272     2.17510
O944        O  0.43770401  0.75623519  0.06194949    -0.51750
O945        O  0.47248306  0.83448605  0.08433136    -0.74960
O946        O  0.47786785  0.80832598  0.00689718    -0.81740
O947        O  0.37829534  0.76319304  0.11603035    -0.83490
O948        O  0.46671305  0.80622165  0.94272400    -0.79110
O949        O  0.42587790  0.78031292  0.11065453    -0.90750
O950        O  0.46208461  0.87115945  0.08719467    -0.76710
O951        O  0.44741109  0.84075256  0.01103038    -0.86200
O952        O  0.41013716  0.82004645  0.07903719    -0.85890
O953        O  0.41997415  0.78474972  0.97839473    -0.72650
O954        O  0.38698315  0.76714801  0.03841876    -0.84780
Zr955      Zr  0.35859676  0.81719299  0.97239195     2.26420
Zr956      Zr  0.43287115  0.82748389  0.94388344     2.06270
Zr957      Zr  0.36193460  0.78854873  0.07229313     2.10050
Zr958      Zr  0.42147895  0.86134198  0.04516818     1.78760
O959        O  0.32394152  0.74556578  0.09357041    -0.93590
O960        O  0.45822786  0.90485667  0.02307963    -0.41390
O961        O  0.37229714  0.83069249  0.03951895    -0.78030
O962        O  0.40771770  0.84938546  0.97822714    -0.96710
O963        O  0.38375249  0.79624854  0.93727658    -0.90020
O964        O  0.34686899  0.77553859  0.00573686    -0.92860
C965        C  0.47726028  0.85883729  0.09643414     1.00890
C966        C  0.40229645  0.76464183  0.12634139     1.13820
C967        C  0.47891319  0.80016031  0.97147875     1.04600
O968        O  0.47360825  0.87193161  0.94365893    -0.95010
O969        O  0.41215029  0.84611854  0.89231048    -0.90760
O970        O  0.37629858  0.85104146  0.92353046    -0.83900
C971        C  0.39218462  0.85407975  0.89382031     1.11240
O972        O  0.38642567  0.71797978  0.98094803    -0.96990
Zr973      Zr  0.37171571  0.75455506  0.97157127     1.88940
O974        O  0.32969383  0.78579896  0.91932326    -0.73640
O975        O  0.44710293  0.82316604  0.87648209    -0.52900
O976        O  0.38791727  0.74400385  0.90868678    -0.97580
O977        O  0.33408380  0.71172996  0.99445440    -0.54800
O978        O  0.33264470  0.74548292  0.92720442    -0.74150
C979        C  0.32234638  0.76025334  0.91056721     0.98190
O980        O  0.33337799  0.84576667  0.96749068    -0.62970
O981        O  0.35910922  0.81128511  0.13368921    -0.57780
O982        O  0.31362719  0.80316846  0.00459773    -0.94460
O983        O  0.31638770  0.78861925  0.06606679    -0.92890
O984        O  0.40631604  0.87313391  0.10790384    -0.93240
O985        O  0.40621102  0.89743113  0.03534208    -0.92030
C986        C  0.30278609  0.79275233  0.03780250     1.17030
H987        H  0.41542336  0.82362621  0.10645976     0.32980
H988        H  0.41266979  0.86710065  0.96671043     0.43830
H989        H  0.32703729  0.76349403  0.00427420     0.37350
H990        H  0.42772065  0.77263084  0.96852804     0.33830
H991        H  0.46432120  0.91641163  0.04725187     0.25620
H992        H  0.46790197  0.83279256  0.87650302     0.31560
H993        H  0.37119844  0.72868839  0.89720138     0.37470
H994        H  0.41858385  0.89294005  0.11178707     0.31930
H995        H  0.33979667  0.80027178  0.14361586     0.30810
H996        H  0.31891578  0.74949288  0.12041708     0.32490
H997        H  0.32571928  0.70103883  0.97014053     0.31450
H998        H  0.38753687  0.88798969  0.02276353     0.35450
H999        H  0.34752408  0.86497638  0.97144667     0.28190
H1000       H  0.45567065  0.76071327  0.07552370     0.32420
H1001       H  0.37667655  0.70399842  0.96029928     0.35270
H1002       H  0.37134358  0.80748327  0.15221786     0.27880
H1003       H  0.32739567  0.84453932  0.93967960     0.40750
H1004       H  0.48975489  0.86769907  0.94889692     0.30810
H1005       H  0.47430510  0.90072268  0.01611692     0.38420
H1006       H  0.31937788  0.71674599  0.00524078     0.30270
H1007       H  0.44271623  0.80349346  0.87298052     0.30340
H1008       H  0.43794757  0.74683431  0.03677826     0.30600
C1009       C  0.04754825  0.89707915  0.17662623    -0.00580
C1010       C  0.02341713  0.90163116  0.18155949    -0.12450
C1011       C  0.50068366  0.89011187  0.15533860     0.01660
C1012       C  0.50182958  0.87361669  0.12303003    -0.00660
C1013       C  0.02663944  0.87024070  0.11709720    -0.12390
C1014       C  0.04926731  0.88170044  0.14354125     0.01540
H1015       H  0.02137153  0.91237421  0.20784661     0.14520
H1016       H  0.02803864  0.85788163  0.09238254     0.14520
C1017       C  0.07339346  0.87596467  0.13766547     0.36180
C1018       C  0.47546408  0.89329022  0.16486459     0.36080
N1019       N  0.09277794  0.87142240  0.13307163    -0.44170
N1020       N  0.45531816  0.89580514  0.17305607    -0.44160
C1021       C  0.40256061  0.74491067  0.15528820    -0.00580
C1022       C  0.41718867  0.75406002  0.19090096    -0.12450
C1023       C  0.41769415  0.73511463  0.21835468     0.01660
C1024       C  0.40401535  0.70679285  0.20947553    -0.00660
C1025       C  0.39021297  0.69786558  0.17334182    -0.12390
C1026       C  0.38943078  0.71661395  0.14625164     0.01540
H1027       H  0.42751502  0.77586581  0.19763299     0.14520
H1028       H  0.37948988  0.67605364  0.16664989     0.14520
C1029       C  0.37554307  0.70636301  0.10895356     0.36180
C1030       C  0.43068448  0.74497239  0.25622456     0.36080
N1031       N  0.36455201  0.69822067  0.07900569    -0.44170
N1032       N  0.44089791  0.75282995  0.28670334    -0.44160
C1033       C  0.47333028  0.73243783  0.36984691    -0.00580
C1034       C  0.50022733  0.73734629  0.35567885    -0.12450
C1035       C  0.02169988  0.76384080  0.35447566     0.01660
C1036       C  0.01648055  0.78591356  0.36808702    -0.00660
C1037       C  0.49029623  0.78114678  0.38443955    -0.12390
C1038       C  0.46857853  0.75451293  0.38540588     0.01540
H1039       H  0.00420219  0.72050585  0.34406494     0.14520
H1040       H  0.48647162  0.79836163  0.39477256     0.14520
C1041       C  0.44130231  0.75092372  0.39954578     0.36180
C1042       C  0.04859428  0.76804553  0.33774223     0.36080
N1043       N  0.41957109  0.74848610  0.41089477    -0.44170
N1044       N  0.07010435  0.77142088  0.32427926    -0.44160
C1045       C  0.22113781  0.99669564  0.29850246    -0.00580
C1046       C  0.23641127  0.49797494  0.33263190    -0.12450
C1047       C  0.26418456  0.50179611  0.33114779     0.01660
C1048       C  0.28033638  0.51228487  0.29674235    -0.00660
C1049       C  0.26579153  0.51256263  0.26208329    -0.12390
C1050       C  0.23617799  0.00339505  0.26231935     0.01540
H1051       H  0.22631004  0.49463210  0.36107465     0.14520
H1052       H  0.27747409  0.02017536  0.23498053     0.14520
C1053       C  0.22217972  0.00211444  0.22555991     0.36180
C1054       C  0.27526269  0.49514528  0.36615051     0.36080
N1055       N  0.21105608  0.00099855  0.19591585    -0.44170
N1056       N  0.28356634  0.48963135  0.39451693    -0.44160
C1057       C  0.15649117  0.53199519  0.53920350    -0.00580
C1058       C  0.12804077  0.52040962  0.52737710    -0.12450
C1059       C  0.11850573  0.00285335  0.49389566     0.01660
C1060       C  0.13766590  0.99674554  0.47053753    -0.00660
C1061       C  0.16617884  0.50916392  0.48185307    -0.12390
C1062       C  0.17556962  0.52603374  0.51547006     0.01540
H1063       H  0.11295257  0.52467001  0.54476244     0.14520
H1064       H  0.18162052  0.50524986  0.46477812     0.14520
C1065       C  0.20518000  0.53663250  0.52439381     0.36180
C1066       C  0.08890969  0.99129907  0.48483796     0.36080
N1067       N  0.22887806  0.54469365  0.53137618    -0.44170
N1068       N  0.06513431  0.98213445  0.47780960    -0.44160
C1069       C  0.30546807  0.61954982  0.46843165    -0.00580
C1070       C  0.31767762  0.63941444  0.49846730    -0.12450
C1071       C  0.30123350  0.64311507  0.52828721     0.01660
C1072       C  0.27215979  0.62650753  0.52854529    -0.00660
C1073       C  0.25960280  0.60788154  0.49776930    -0.12390
C1074       C  0.27586058  0.60441861  0.46744409     0.01540
H1075       H  0.34028285  0.65157228  0.49946079     0.14520
H1076       H  0.23698320  0.59563988  0.49791149     0.14520
C1077       C  0.26100455  0.58594532  0.43569682     0.36180
C1078       C  0.31479052  0.66285042  0.55948300     0.36080
N1079       N  0.24757631  0.57117135  0.41108646    -0.44170
N1080       N  0.32558709  0.67868926  0.58444799    -0.44160
C1081       C  0.26713260  0.71228878  0.81627160    -0.00580
C1082       C  0.25867947  0.70669508  0.85585172    -0.12450
C1083       C  0.27555020  0.72315789  0.88686468     0.01660
C1084       C  0.30111871  0.74632793  0.87877976    -0.00660
C1085       C  0.30848396  0.75310875  0.83911166    -0.12390
C1086       C  0.29202766  0.73620604  0.80811196     0.01540
H1087       H  0.23979241  0.68838999  0.86272455     0.14520
H1088       H  0.32809078  0.77065469  0.83230833     0.14520
C1089       C  0.30162068  0.74328395  0.76803698     0.36180
C1090       C  0.26667354  0.71540521  0.92701040     0.36080
N1091       N  0.30925632  0.74896841  0.73589647    -0.44170
N1092       N  0.25959740  0.70931711  0.95923950    -0.44160
C1093       C  0.45648009  0.62228834  0.18267879    -0.00580
C1094       C  0.48471060  0.64003897  0.19145229    -0.12450
C1095       C  0.00498273  0.65115649  0.16192489     0.01660
C1096       C  0.99767205  0.64415701  0.12223328    -0.00660
C1097       C  0.47012637  0.62475726  0.11313128    -0.12390
C1098       C  0.44946430  0.61385231  0.14305415     0.01540
H1099       H  0.49081532  0.64639310  0.22169264     0.14520
H1100       H  0.46452156  0.61887084  0.08260704     0.14520
C1101       C  0.42112860  0.59532675  0.13219417     0.36180
C1102       C  0.03310685  0.67043451  0.17306010     0.36080
N1103       N  0.39841447  0.58037066  0.12345600    -0.44170
N1104       N  0.05559815  0.68592581  0.18193071    -0.44160
C1105       C  0.27185163  0.78058087  0.04123954    -0.00580
C1106       C  0.25891398  0.75899457  0.06810434    -0.12450
C1107       C  0.23109398  0.73967661  0.06292005     0.01660
C1108       C  0.21600023  0.74182691  0.03031539    -0.00660
C1109       C  0.22775788  0.76496586  0.00633639    -0.12390
C1110       C  0.25517226  0.78462691  0.01199004     0.01540
H1111       H  0.27106087  0.75579441  0.09140210     0.14520
H1112       H  0.21540600  0.76776644  0.98292394     0.14520
C1113       C  0.26530010  0.80831948  0.98684556     0.36180
C1114       C  0.21927877  0.71699587  0.08975910     0.36080
N1115       N  0.27245964  0.82709210  0.96639637    -0.44170
N1116       N  0.20984996  0.69886261  0.11136474    -0.44160
C1117       C  0.49825061  0.72962306  0.96315070    -0.00580
C1118       C  0.00212237  0.74594848  0.92927899    -0.12450
C1119       C  0.99634524  0.76934984  0.93026251     0.01660
C1120       C  0.48940174  0.77832814  0.96646320    -0.00660
C1121       C  0.48766231  0.76273790  0.99991040    -0.12390
C1122       C  0.48809538  0.73726515  0.99757906     0.01540
H1123       H  0.01000454  0.74074973  0.90229168     0.14520
H1124       H  0.48503545  0.77004802  0.02832940     0.14520
C1125       C  0.47792403  0.71983777  0.03162522     0.36180
C1126       C  0.99942640  0.78459075  0.89460103     0.36080
N1127       N  0.46958901  0.70606746  0.05898529    -0.44170
N1128       N  0.00200551  0.79684061  0.86597482    -0.44160
C1129       C  0.09218856  0.80872238  0.21009935    -0.00580
C1130       C  0.11708764  0.81350745  0.18929468    -0.12450
C1131       C  0.11804416  0.79545906  0.16025467     0.01660
C1132       C  0.09340454  0.77177940  0.15054729    -0.00660
C1133       C  0.06829068  0.76684312  0.17122640    -0.12390
C1134       C  0.06754101  0.78498329  0.20099191     0.01540
H1135       H  0.13621409  0.83184105  0.19546779     0.14520
H1136       H  0.04919315  0.74870037  0.16423765     0.14520
C1137       C  0.04165731  0.77830096  0.22245691     0.36180
C1138       C  0.14458868  0.80280220  0.14014089     0.36080
N1139       N  0.02092619  0.77288435  0.23977027    -0.44170
N1140       N  0.16609841  0.80912851  0.12457617    -0.44160
C1141       C  0.09540576  0.63677687  0.84997942    -0.00580
C1142       C  0.11515140  0.65345809  0.82308684    -0.12450
C1143       C  0.13784056  0.64798092  0.81318939     0.01660
C1144       C  0.13599398  0.62101270  0.81703559    -0.00660
C1145       C  0.11234700  0.60163702  0.83697518    -0.12390
C1146       C  0.09324808  0.61004999  0.85599777     0.01540
H1147       H  0.11724267  0.67422225  0.81916087     0.14520
H1148       H  0.11039098  0.58102842  0.84108391     0.14520
C1149       C  0.07343992  0.59215789  0.88423659     0.36180
C1150       C  0.16353526  0.67208077  0.80541251     0.36080
N1151       N  0.05764516  0.57786581  0.90706301    -0.44170
N1152       N  0.18304989  0.69265459  0.80054823    -0.44160
C1153       C  0.34280119  0.98838107  0.53601714    -0.00580
C1154       C  0.36531755  0.51459990  0.53919373    -0.12450
C1155       C  0.37265743  0.53314178  0.50758145     0.01660
C1156       C  0.35745369  0.52553379  0.47174459    -0.00660
C1157       C  0.33542855  0.49903401  0.46846102    -0.12390
C1158       C  0.32806262  0.98058662  0.49996713     0.01540
H1159       H  0.37654151  0.52096863  0.56687294     0.14520
H1160       H  0.32402635  0.99261972  0.44101488     0.14520
C1161       C  0.30545035  0.95350670  0.49442324     0.36180
C1162       C  0.39468721  0.56044529  0.51358237     0.36080
N1163       N  0.28746157  0.93175906  0.48982009    -0.44170
N1164       N  0.41221601  0.58238956  0.51858469    -0.44160
C1165       C  0.23223994  0.52057838  0.70865415    -0.00580
C1166       C  0.24467579  0.51697724  0.67346833    -0.12450
C1167       C  0.26680855  0.00940410  0.67307236     0.01660
C1168       C  0.27452303  0.00039397  0.70810647    -0.00660
C1169       C  0.26135069  0.50269622  0.74359003    -0.12390
C1170       C  0.24117444  0.51354622  0.74431997     0.01540
H1171       H  0.23800024  0.52129829  0.64541970     0.14520
H1172       H  0.26673945  0.49597690  0.77087587     0.14520
C1173       C  0.22986129  0.51678544  0.78192086     0.36180
C1174       C  0.28065980  0.01104412  0.63544852     0.36080
N1175       N  0.22092031  0.51941896  0.81220017    -0.44170
N1176       N  0.29145978  0.01255701  0.60509898    -0.44160
C1177       C  0.27139352  0.78456592  0.64460020    -0.00580
C1178       C  0.26645250  0.77648832  0.68383916    -0.12450
C1179       C  0.24619495  0.75070393  0.69362149     0.01660
C1180       C  0.23173981  0.73158672  0.66326334    -0.00660
C1181       C  0.23874785  0.73898680  0.62368859    -0.12390
C1182       C  0.25825968  0.76542140  0.61417037     0.01540
H1183       H  0.27583042  0.79146283  0.70725204     0.14520
H1184       H  0.22842191  0.72445449  0.60006740     0.14520
C1185       C  0.26353631  0.77290136  0.57319304     0.36180
C1186       C  0.23968614  0.74586289  0.73508201     0.36080
N1187       N  0.26775020  0.77889418  0.54035578    -0.44170
N1188       N  0.23460014  0.74271392  0.76839671    -0.44160
C1189       C  0.38319081  0.86553339  0.86022429    -0.00580
C1190       C  0.35382087  0.85441881  0.85600924    -0.12450
C1191       C  0.34102509  0.86851452  0.83715862     0.01660
C1192       C  0.35731018  0.89245050  0.81618751    -0.00660
C1193       C  0.38691061  0.90313821  0.81778223    -0.12390
C1194       C  0.39995134  0.89045614  0.84126696     0.01540
H1195       H  0.34047770  0.83541618  0.87063352     0.14520
H1196       H  0.39967846  0.92098618  0.80053373     0.14520
C1197       C  0.43005180  0.90342259  0.84609609     0.36180
C1198       C  0.31068584  0.85761832  0.83897745     0.36080
N1199       N  0.45421165  0.91389845  0.85008129    -0.44170
N1200       N  0.28648409  0.84933975  0.84079471    -0.44160
C1201       C  0.18442965  0.76582861  0.85615373    -0.00580
C1202       C  0.17180546  0.77372103  0.82580636    -0.12450
C1203       C  0.18742788  0.79027399  0.79462741     0.01660
C1204       C  0.21730576  0.80057238  0.79294682    -0.00660
C1205       C  0.22987947  0.79092147  0.82192477    -0.12390
C1206       C  0.21378679  0.77379821  0.85323196     0.01540
H1207       H  0.14925291  0.76734350  0.82696713     0.14520
H1208       H  0.25241886  0.79756373  0.82115354     0.14520
C1209       C  0.22808480  0.76604770  0.88315443     0.36180
C1210       C  0.17146270  0.79615528  0.76495881     0.36080
N1211       N  0.23960647  0.75985122  0.90714578    -0.44170
N1212       N  0.15781006  0.80028508  0.74187179    -0.44160
C1213       C  0.21724774  0.90116373  0.53186694    -0.00580
C1214       C  0.20620816  0.92053097  0.53648111    -0.12450
C1215       C  0.18540761  0.92024137  0.51159055     0.01660
C1216       C  0.17532320  0.90028761  0.48148547    -0.00660
C1217       C  0.18591663  0.88068040  0.47684123    -0.12390
C1218       C  0.20701910  0.88107059  0.50154141     0.01540
H1219       H  0.21352167  0.93582336  0.55994948     0.14520
H1220       H  0.17856518  0.86582389  0.45275862     0.14520
C1221       C  0.21862495  0.86163750  0.49359994     0.36180
C1222       C  0.17430013  0.94020513  0.51808503     0.36080
N1223       N  0.22787955  0.84609037  0.48684039    -0.44170
N1224       N  0.16532554  0.95610645  0.52351501    -0.44160
Zr1225     Zr  0.77917905  0.43766913  0.63743689     2.17510
O1226       O  0.74091008  0.45167266  0.63924493    -0.51750
O1227       O  0.80913295  0.46653613  0.58578405    -0.74960
O1228       O  0.80098657  0.48080682  0.67280767    -0.81740
O1229       O  0.73893699  0.37917484  0.56891592    -0.83490
O1230       O  0.79557029  0.47255903  0.73692165    -0.79110
O1231       O  0.75237948  0.42487440  0.57794353    -0.90750
O1232       O  0.84798052  0.45826150  0.58341318    -0.76710
O1233       O  0.82301321  0.44920798  0.66889123    -0.86200
O1234       O  0.79884620  0.41185056  0.60194731    -0.85890
O1235       O  0.76732176  0.42416109  0.70487453    -0.72650
O1236       O  0.74615629  0.39071822  0.64388001    -0.84780
Zr1237     Zr  0.79778475  0.36155055  0.70948668     2.26420
Zr1238     Zr  0.81188755  0.43568356  0.73651968     2.06270
Zr1239     Zr  0.76718172  0.36522173  0.61031908     2.10050
Zr1240     Zr  0.84226942  0.42309046  0.63317509     1.78760
O1241       O  0.72587070  0.32806576  0.58153784    -0.93590
O1242       O  0.88523734  0.46251152  0.65291647    -0.41390
O1243       O  0.81092172  0.37508315  0.64185430    -0.78030
O1244       O  0.83145416  0.40921685  0.70071979    -0.96710
O1245       O  0.77849047  0.38836490  0.74361042    -0.90020
O1246       O  0.75453763  0.35064988  0.67732927    -0.92860
C1247       C  0.83303398  0.47022356  0.57103091     1.00890
C1248       C  0.73788147  0.40179162  0.56086376     1.13820
C1249       C  0.79222180  0.48471063  0.70639282     1.04600
O1250       O  0.85687552  0.47589925  0.74213624    -0.95010
O1251       O  0.83743776  0.41954421  0.78318929    -0.90760
O1252       O  0.83346884  0.37856978  0.75839104    -0.83900
C1253       C  0.84279106  0.39831426  0.78339107     1.11240
O1254       O  0.70141295  0.39716839  0.70531175    -0.96990
Zr1255     Zr  0.73499249  0.37730559  0.71079363     1.88940
O1256       O  0.75985615  0.32751596  0.75305529    -0.73640
O1257       O  0.79942949  0.44171793  0.80415883    -0.52900
O1258       O  0.72026036  0.38743737  0.77508011    -0.97580
O1259       O  0.69329774  0.34390506  0.67716199    -0.54800
O1260       O  0.72291344  0.33829902  0.75294358    -0.74150
C1261       C  0.73467467  0.32331975  0.76432917     0.98190
O1262       O  0.82067076  0.33552411  0.73949924    -0.62970
O1263       O  0.79297898  0.36438217  0.55065207    -0.57780
O1264       O  0.80142887  0.33062155  0.65940784    -0.94460
O1265       O  0.76524543  0.32082343  0.61822453    -0.92890
O1266       O  0.85445037  0.40493815  0.57340616    -0.93240
O1267       O  0.88200835  0.41202834  0.64213860    -0.92030
C1268       C  0.78106987  0.31376727  0.63862717     1.17030
H1269       H  0.80094700  0.41582908  0.57413652     0.32980
H1270       H  0.84979660  0.41313079  0.71099087     0.43830
H1271       H  0.74218325  0.33129479  0.67873975     0.37350
H1272       H  0.75706681  0.43357521  0.71642003     0.33830
H1273       H  0.89692713  0.46770427  0.62868988     0.25620
H1274       H  0.81037403  0.46153736  0.80998424     0.31560
H1275       H  0.70197360  0.37170582  0.78062261     0.37470
H1276       H  0.86998515  0.42097351  0.56133819     0.31930
H1277       H  0.78768382  0.34468854  0.54537425     0.30930
H1278       H  0.73297941  0.32184728  0.55805348     0.32490
H1279       H  0.67714257  0.34212926  0.69392030     0.31450
H1280       H  0.87372916  0.39364937  0.65425553     0.35450
H1281       H  0.80611354  0.32103327  0.75542850     0.28190
H1282       H  0.72413331  0.43547456  0.62982015     0.32420
H1283       H  0.68451236  0.38524834  0.72051628     0.35270
H1284       H  0.78374781  0.36985295  0.52944268     0.27880
H1285       H  0.82555933  0.32560181  0.71817824     0.40750
H1286       H  0.85489796  0.48991125  0.72563643     0.30810
H1287       H  0.87955586  0.47759265  0.65728382     0.38420
H1288       H  0.69425801  0.32609287  0.67952357     0.30270
H1289       H  0.77965412  0.43905342  0.80273825     0.30340
H1290       H  0.73687379  0.45264943  0.66762936     0.30600
Zr1291     Zr  0.55719375  0.21626250  0.03674562     2.17510
O1292       O  0.54560073  0.25467687  0.04969529    -0.51750
O1293       O  0.52441559  0.18215229  0.08173289    -0.74960
O1294       O  0.51356143  0.20170846  0.00038402    -0.81740
O1295       O  0.61575300  0.25161718  0.10780887    -0.83490
O1296       O  0.52252653  0.20401291  0.93573140    -0.79110
O1297       O  0.56972364  0.24152266  0.09821336    -0.90750
O1298       O  0.53214685  0.14387453  0.07720848    -0.76710
O1299       O  0.54498332  0.17343688  0.00386192    -0.86200
O1300       O  0.58444653  0.19709976  0.06825533    -0.85890
O1301       O  0.57046222  0.22842289  0.96914646    -0.72650
O1302       O  0.60522660  0.24871981  0.02644961    -0.84780
Zr1303     Zr  0.63380021  0.19750955  0.95634402     2.26420
Zr1304     Zr  0.55740454  0.18467458  0.93591565     2.06270
Zr1305     Zr  0.63210407  0.22890023  0.05757186     2.10050
Zr1306     Zr  0.57312925  0.15483550  0.03491337     1.78760
O1307       O  0.67265315  0.27335489  0.06250737    -0.93590
O1308       O  0.53885115  0.11045947  0.01036072    -0.41390
O1309       O  0.62156826  0.18604894  0.02462333    -0.78030
O1310       O  0.58538975  0.16529837  0.96736245    -0.96710
O1311       O  0.60592532  0.21628522  0.92502951    -0.90020
O1312       O  0.64496454  0.24005318  0.98995381    -0.92860
C1313       C  0.51895200  0.15731897  0.09096188     1.00890
C1314       C  0.59289596  0.25352746  0.11704641     1.13820
C1315       C  0.51088072  0.20960559  0.96598340     1.04600
O1316       O  0.51393636  0.14252624  0.93499925    -0.95010
O1317       O  0.56988138  0.15650485  0.88854596    -0.90760
O1318       O  0.61535365  0.16558909  0.90254180    -0.83900
C1319       C  0.59253347  0.15328539  0.88298423     1.11240
O1320       O  0.60434855  0.29595777  0.97276500    -0.96990
Zr1321     Zr  0.61817959  0.25906364  0.95831722     1.88940
O1322       O  0.66297397  0.22875721  0.90358146    -0.73640
O1323       O  0.55049416  0.19418003  0.86797362    -0.52900
O1324       O  0.59786742  0.26831457  0.89933950    -0.97580
O1325       O  0.65790476  0.30248695  0.97537960    -0.54800
O1326       O  0.65333486  0.26586475  0.90702273    -0.74150
C1327       C  0.66629119  0.25260618  0.89163226     0.98190
O1328       O  0.65527970  0.16547747  0.95156675    -0.62970
O1329       O  0.64423236  0.21759051  0.12179760    -0.57780
O1330       O  0.67987386  0.21723389  0.98574474    -0.94460
O1331       O  0.66938191  0.21463522  0.05035571    -0.92890
O1332       O  0.58850068  0.14627607  0.09862234    -0.93240
O1333       O  0.59051994  0.11979319  0.02969792    -0.92030
C1334       C  0.68701160  0.22238411  0.02197294     1.17030
H1335       H  0.58016939  0.19445466  0.09607154     0.32980
H1336       H  0.58155220  0.14749916  0.95624167     0.43830
H1337       H  0.66447704  0.25282386  0.98736101     0.37350
H1338       H  0.56167103  0.23957815  0.95983693     0.33830
H1339       H  0.53157484  0.09919006  0.03421994     0.25620
H1340       H  0.52996543  0.18418538  0.86366241     0.31560
H1341       H  0.61381628  0.28314884  0.88584408     0.37470
H1342       H  0.57263965  0.12942433  0.10821917     0.31930
H1343       H  0.65535755  0.23552541  0.13487411     0.30810
H1344       H  0.68604936  0.27019537  0.07960039     0.32490
H1345       H  0.66183461  0.31354639  0.95115276     0.31450
H1346       H  0.60624981  0.12720228  0.01053737     0.35450
H1347       H  0.66290205  0.16550477  0.97812107     0.28190
H1348       H  0.52742717  0.24711456  0.06393998     0.32420
H1349       H  0.61202681  0.30914556  0.95095806     0.35270
H1350       H  0.62627985  0.20964118  0.13668884     0.27880
H1351       H  0.63940702  0.14700826  0.94916623     0.40750
H1352       H  0.50045582  0.14682270  0.95094013     0.30810
H1353       H  0.52291738  0.11392245  0.00118205     0.38420
H1354       H  0.67433287  0.29830551  0.97789749     0.30270
H1355       H  0.55436535  0.21382644  0.86811580     0.30340
H1356       H  0.54185888  0.26025048  0.02359304     0.30600
Zr1357     Zr  0.72025054  0.08501995  0.64161083     2.17510
O1358       O  0.76194789  0.07734810  0.62949508    -0.51750
O1359       O  0.68977311  0.05496504  0.59052564    -0.74960
O1360       O  0.70882333  0.04075081  0.67063407    -0.81740
O1361       O  0.75236105  0.14648123  0.57391071    -0.83490
O1362       O  0.70646680  0.04520526  0.73650169    -0.79110
O1363       O  0.74537729  0.10210312  0.58128613    -0.90750
O1364       O  0.65017989  0.06146428  0.58892358    -0.76710
O1365       O  0.67545552  0.06804342  0.67289481    -0.86200
O1366       O  0.69858239  0.11046409  0.61205565    -0.85890
O1367       O  0.73063504  0.09504675  0.71039191    -0.72650
O1368       O  0.75089758  0.13237135  0.65446363    -0.84780
Zr1369     Zr  0.69366429  0.15130639  0.72766900     2.26420
Zr1370     Zr  0.68489082  0.07797956  0.74224469     2.06270
Zr1371     Zr  0.72793179  0.15766367  0.62688820     2.10050
Zr1372     Zr  0.65402241  0.09381684  0.64315824     1.78760
O1373       O  0.77080282  0.20041029  0.62566233    -0.93590
O1374       O  0.61208651  0.05262874  0.66011499    -0.41390
O1375       O  0.68343137  0.14116090  0.65866319    -0.78030
O1376       O  0.66269608  0.10388049  0.71250231    -0.96710
O1377       O  0.71557154  0.12538898  0.75523781    -0.90020
O1378       O  0.73812999  0.16742860  0.69507865    -0.92860
C1379       C  0.66593216  0.05048149  0.57530142     1.00890
C1380       C  0.75534409  0.12501592  0.56332461     1.13820
C1381       C  0.71395769  0.03559506  0.70563032     1.04600
O1382       O  0.64352034  0.03400773  0.74340376    -0.95010
O1383       O  0.65338276  0.08942546  0.78740082    -0.90760
O1384       O  0.68183550  0.13358172  0.79270590    -0.83900
C1385       C  0.65823968  0.11384691  0.79949770     1.11240
O1386       O  0.79758853  0.12764999  0.71213486    -0.96990
Zr1387     Zr  0.76019566  0.14217808  0.72331696     1.88940
O1388       O  0.72710637  0.18411336  0.77568548    -0.73640
O1389       O  0.69594002  0.07122429  0.80951948    -0.52900
O1390       O  0.77136498  0.12752009  0.78568617    -0.97580
O1391       O  0.80396252  0.17986036  0.70195442    -0.54800
O1392       O  0.76783052  0.17944570  0.76991615    -0.74150
C1393       C  0.75295691  0.19073454  0.78515065     0.98190
O1394       O  0.64972602  0.15597248  0.72087343    -0.62970
O1395       O  0.71606999  0.17306244  0.56558460    -0.57780
O1396       O  0.70488634  0.19665329  0.70770295    -0.94460
O1397       O  0.70324491  0.18513904  0.64463738    -0.92890
O1398       O  0.64186342  0.11304523  0.58586717    -0.93240
O1399       O  0.61346516  0.10390553  0.65246399    -0.92030
C1400       C  0.71149439  0.20335673  0.67203018     1.17030
H1401       H  0.69669967  0.10760852  0.58385058     0.32980
H1402       H  0.64433736  0.09936717  0.72364687     0.43830
H1403       H  0.74936241  0.18681780  0.69958714     0.37350
H1404       H  0.74229233  0.08655901  0.71921641     0.33830
H1405       H  0.60039637  0.04795339  0.63603710     0.25620
H1406       H  0.68593217  0.05115635  0.81339521     0.31560
H1407       H  0.78795796  0.14366093  0.79576054     0.37470
H1408       H  0.62688429  0.09713766  0.57237563     0.31930
H1409       H  0.73434112  0.18476365  0.55312086     0.30810
H1410       H  0.77756132  0.20210706  0.59804575     0.32490
H1411       H  0.81477235  0.18730263  0.72649155     0.31450
H1412       H  0.60931193  0.10203499  0.68108039     0.35450
H1413       H  0.65207717  0.17378680  0.73229800     0.28190
H1414       H  0.75579215  0.06097039  0.61201601     0.32420
H1415       H  0.81230646  0.13790826  0.73176383     0.35270
H1416       H  0.70797965  0.15641982  0.54856369     0.27880
H1417       H  0.63518343  0.14147450  0.73670045     0.40750
H1418       H  0.64707849  0.02276214  0.72265327     0.30810
H1419       H  0.61858172  0.03799394  0.66178152     0.38420
H1420       H  0.79858449  0.19436722  0.69341857     0.30270
H1421       H  0.71610733  0.07514694  0.80864830     0.30340
H1422       H  0.76648876  0.07172337  0.65507241     0.30600
Zr1423     Zr  0.83850542  0.07631052  0.36994420     2.17510
O1424       O  0.78801986  0.06094561  0.37157566    -0.51750
O1425       O  0.84278087  0.04750677  0.42216578    -0.74960
O1426       O  0.82246948  0.03295309  0.33416591    -0.81740
O1427       O  0.84772174  0.13710073  0.43289789    -0.83490
O1428       O  0.82663557  0.03993899  0.26945655    -0.79110
O1429       O  0.81720909  0.09248595  0.42200519    -0.90750
O1430       O  0.88932628  0.05794990  0.42650784    -0.76710
O1431       O  0.87288366  0.06473198  0.33916444    -0.86200
O1432       O  0.88038287  0.10344111  0.40506342    -0.85890
O1433       O  0.83951329  0.08796410  0.30142275    -0.72650
O1434       O  0.84743628  0.12311918  0.36031790    -0.84780
Zr1435     Zr  0.92554663  0.15022333  0.29763211     2.26420
Zr1436     Zr  0.87509739  0.07683205  0.27052881     2.06270
Zr1437     Zr  0.88998660  0.15020894  0.39404858     2.10050
Zr1438     Zr  0.91449598  0.09139918  0.37511282     1.78760
O1439       O  0.87879600  0.18839901  0.41068471    -0.93590
O1440       O  0.92237139  0.05110067  0.35915097    -0.41390
O1441       O  0.92536147  0.13900413  0.36563963    -0.78030
O1442       O  0.91751634  0.10332702  0.30641071    -0.96710
O1443       O  0.88367168  0.12370736  0.26215880    -0.90020
O1444       O  0.89106634  0.16190899  0.32660519    -0.92860
C1445       C  0.86359110  0.04484243  0.43793638     1.00890
C1446       C  0.82447003  0.11596842  0.43904389     1.13820
C1447       C  0.81163576  0.02826780  0.29978087     1.04600
O1448       O  0.88677589  0.03785175  0.26804085    -0.95010
O1449       O  0.91405645  0.09444592  0.22070261    -0.90760
O1450       O  0.94145482  0.13907654  0.23693530    -0.83900
C1451       C  0.93550365  0.11785778  0.21505510     1.11240
O1452       O  0.79801363  0.11785874  0.30064312    -0.96990
Zr1453     Zr  0.84877259  0.13450447  0.29269879     1.88940
O1454       O  0.92070904  0.18287179  0.25277589    -0.73640
O1455       O  0.85812539  0.06784619  0.20288709    -0.52900
O1456       O  0.82632376  0.11786711  0.22907414    -0.97580
O1457       O  0.83475175  0.17054810  0.31200552    -0.54800
O1458       O  0.87387864  0.17119229  0.24833948    -0.74150
C1459       C  0.89954676  0.18579324  0.23900696     0.98190
O1460       O  0.97626851  0.16451055  0.29447993    -0.62970
O1461       O  0.91090249  0.15329610  0.45869792    -0.57780
O1462       O  0.95176453  0.19344723  0.33014770    -0.94460
O1463       O  0.93140197  0.19396338  0.38932242    -0.92890
O1464       O  0.94212707  0.11093928  0.43425039    -0.93240
O1465       O  0.96410322  0.10253605  0.36558813    -0.92030
C1466       C  0.95055463  0.20487337  0.36299009     1.17030
H1467       H  0.87836855  0.09989721  0.43300744     0.32980
H1468       H  0.93286285  0.10045603  0.29477157     0.43830
H1469       H  0.89590046  0.18121533  0.32407307     0.37350
H1470       H  0.82102932  0.07836254  0.29015237     0.33830
H1471       H  0.92961472  0.04700867  0.38381687     0.25620
H1472       H  0.85230676  0.04797136  0.19846074     0.31560
H1473       H  0.82405530  0.13358834  0.21781413     0.37470
H1474       H  0.94586117  0.09589365  0.44496763     0.31930
H1475       H  0.91829684  0.17293874  0.46628452     0.30810
H1476       H  0.88372070  0.19239411  0.43891340     0.32490
H1477       H  0.83129283  0.17762177  0.28686971     0.31450
H1478       H  0.97291555  0.12225029  0.35888995     0.35450
H1479       H  0.98315389  0.17006799  0.32172307     0.28190
H1480       H  0.78026395  0.04379208  0.38676432     0.32420
H1481       H  0.79201189  0.12669547  0.27967246     0.35270
H1482       H  0.89472275  0.14395810  0.47666537     0.27880
H1483       H  0.97832475  0.14728143  0.29028701     0.40750
H1484       H  0.87160810  0.02339062  0.28324093     0.30810
H1485       H  0.90332007  0.03590182  0.35620610     0.38420
H1486       H  0.85197307  0.18568722  0.32263735     0.30270
H1487       H  0.84034490  0.06991209  0.20331630     0.30340
H1488       H  0.78147243  0.05590931  0.34414868     0.30600
Zr1489     Zr  0.65292307  0.43930005  0.37392679     2.17510
O1490       O  0.70025511  0.44488787  0.38864362    -0.51750
O1491       O  0.64938362  0.47179350  0.42093741    -0.74960
O1492       O  0.68014703  0.48139224  0.33845459    -0.81740
O1493       O  0.63552649  0.37961080  0.44161068    -0.83490
O1494       O  0.67352157  0.47205774  0.27346986    -0.79110
O1495       O  0.66440241  0.42509609  0.43496772    -0.90750
O1496       O  0.60379315  0.46454343  0.42397535    -0.76710
O1497       O  0.62259967  0.45362808  0.33957433    -0.86200
O1498       O  0.60886267  0.41585461  0.40596811    -0.85890
O1499       O  0.65489374  0.42530037  0.30702146    -0.72650
O1500       O  0.64139586  0.39156819  0.36795217    -0.84780
Zr1501     Zr  0.56712819  0.36708659  0.29647388     2.26420
Zr1502     Zr  0.62316610  0.43890120  0.27232788     2.06270
Zr1503     Zr  0.59634564  0.36812362  0.39762960     2.10050
Zr1504     Zr  0.57856222  0.42989865  0.37194594     1.78760
O1505       O  0.60255563  0.32799871  0.41774950    -0.93590
O1506       O  0.57366152  0.47088753  0.35281033    -0.41390
O1507       O  0.56478607  0.38126146  0.36349000    -0.78030
O1508       O  0.57817605  0.41524689  0.30401432    -0.96710
O1509       O  0.61178180  0.39097157  0.26575922    -0.90020
O1510       O  0.59793168  0.35384808  0.33123279    -0.92860
C1511       C  0.62951089  0.47662730  0.43607571     1.00890
C1512       C  0.65684890  0.40178791  0.45125776     1.13820
C1513       C  0.68967890  0.48374366  0.30305485     1.04600
O1514       O  0.61513836  0.47999345  0.26984533    -0.95010
O1515       O  0.58717841  0.42226391  0.21928498    -0.90760
O1516       O  0.55529827  0.37879835  0.23386450    -0.83900
C1517       C  0.56489078  0.39987551  0.21191506     1.11240
O1518       O  0.69253638  0.39232409  0.31441063    -0.96990
Zr1519     Zr  0.64267184  0.37795358  0.30147731     1.88940
O1520       O  0.57348437  0.33456126  0.25013839    -0.73640
O1521       O  0.64153206  0.44793151  0.20523442    -0.52900
O1522       O  0.66829698  0.39095146  0.23923161    -0.97580
O1523       O  0.65288755  0.34094241  0.32562786    -0.54800
O1524       O  0.61840912  0.34040757  0.25783093    -0.74150
C1525       C  0.59427900  0.32881528  0.24171856     0.98190
O1526       O  0.51681258  0.35350686  0.28889936    -0.62970
O1527       O  0.57221918  0.36841708  0.45919826    -0.57780
O1528       O  0.53875688  0.32389897  0.32775314    -0.94460
O1529       O  0.55392042  0.32604973  0.39086416    -0.92890
O1530       O  0.54849868  0.41276382  0.42969645    -0.93240
O1531       O  0.53017988  0.42144330  0.35853604    -0.92030
C1532       C  0.53746766  0.31396568  0.36214720     1.17030
H1533       H  0.60982251  0.42035768  0.43375175     0.32980
H1534       H  0.56429508  0.41902940  0.29030124     0.43830
H1535       H  0.59218359  0.33429842  0.32948507     0.37350
H1536       H  0.67402166  0.43297389  0.29751286     0.33830
H1537       H  0.56632870  0.47642266  0.37671752     0.25620
H1538       H  0.64920101  0.46808864  0.20247925     0.31560
H1539       H  0.67192029  0.37502540  0.23136732     0.37470
H1540       H  0.54582331  0.42872845  0.44003963     0.31930
H1541       H  0.56360690  0.34905553  0.46767978     0.30810
H1542       H  0.59468181  0.32412366  0.44480250     0.32490
H1543       H  0.65719072  0.33267492  0.30170076     0.31450
H1544       H  0.52119221  0.40227249  0.34853523     0.35450
H1545       H  0.50888340  0.34955660  0.31591192     0.28190
H1546       H  0.70962367  0.46223990  0.40385393     0.32420
H1547       H  0.69881768  0.38212667  0.29514580     0.35270
H1548       H  0.58746296  0.37795408  0.47844115     0.27880
H1549       H  0.51524941  0.37054569  0.28202869     0.40750
H1550       H  0.63304715  0.49503096  0.27884100     0.30810
H1551       H  0.59318989  0.48523928  0.35010901     0.38420
H1552       H  0.63462979  0.32678848  0.33509080     0.30270
H1553       H  0.65823027  0.44399716  0.20514591     0.30340
H1554       H  0.71017458  0.44750712  0.36304410     0.30600
Zr1555     Zr  0.93548471  0.29902372  0.04519271     2.17510
O1556       O  0.93770402  0.25623520  0.06194949    -0.51750
O1557       O  0.97248306  0.33448606  0.08433136    -0.74960
O1558       O  0.97786785  0.30832598  0.00689718    -0.81740
O1559       O  0.87829533  0.26319303  0.11603033    -0.83490
O1560       O  0.96671306  0.30622165  0.94272400    -0.79110
O1561       O  0.92587789  0.28031291  0.11065451    -0.90750
O1562       O  0.96208460  0.37115945  0.08719467    -0.76710
O1563       O  0.94741109  0.34075257  0.01103037    -0.86200
O1564       O  0.91013715  0.32004644  0.07903717    -0.85890
O1565       O  0.91997415  0.28474972  0.97839472    -0.72650
O1566       O  0.88698315  0.26714801  0.03841874    -0.84780
Zr1567     Zr  0.85859677  0.31719299  0.97239192     2.26420
Zr1568     Zr  0.93287116  0.32748390  0.94388343     2.06270
Zr1569     Zr  0.86193459  0.28854873  0.07229311     2.10050
Zr1570     Zr  0.92147894  0.36134198  0.04516817     1.78760
O1571       O  0.82394151  0.24556576  0.09357034    -0.93590
O1572       O  0.95822786  0.40485667  0.02307964    -0.41390
O1573       O  0.87229714  0.33069249  0.03951893    -0.78030
O1574       O  0.90771770  0.34938546  0.97822713    -0.96710
O1575       O  0.88375250  0.29624855  0.93727656    -0.90020
O1576       O  0.84686900  0.27553860  0.00573683    -0.92860
C1577       C  0.97726028  0.35883729  0.09643414     1.00890
C1578       C  0.90229644  0.26464183  0.12634138     1.13820
C1579       C  0.97891320  0.30016031  0.97147875     1.04600
O1580       O  0.97360825  0.37193162  0.94365894    -0.95010
O1581       O  0.91215029  0.34611854  0.89231047    -0.90760
O1582       O  0.87629859  0.35104148  0.92353044    -0.83900
C1583       C  0.89218463  0.35407976  0.89382029     1.11240
O1584       O  0.88642568  0.21797979  0.98094800    -0.96990
Zr1585     Zr  0.87171571  0.25455507  0.97157125     1.88940
O1586       O  0.82969384  0.28579897  0.91932324    -0.73640
O1587       O  0.94710296  0.32316607  0.87648209    -0.52900
O1588       O  0.88791728  0.24400386  0.90868675    -0.97580
O1589       O  0.83408381  0.21172996  0.99445437    -0.54800
O1590       O  0.83264471  0.24548293  0.92720440    -0.74150
C1591       C  0.82234639  0.26025334  0.91056719     0.98190
O1592       O  0.83337799  0.34576667  0.96749064    -0.62970
O1593       O  0.85910920  0.31128509  0.13368919    -0.57780
O1594       O  0.81362720  0.30316847  0.00459770    -0.94460
O1595       O  0.81638770  0.28861926  0.06606677    -0.92890
O1596       O  0.90631603  0.37313390  0.10790384    -0.93240
O1597       O  0.90621101  0.39743112  0.03534207    -0.92030
C1598       C  0.80278609  0.29275234  0.03780247     1.17030
H1599       H  0.91542335  0.32362621  0.10645975     0.32980
H1600       H  0.91266980  0.36710066  0.96671042     0.43830
H1601       H  0.82703729  0.26349403  0.00427417     0.37350
H1602       H  0.92772066  0.27263084  0.96852803     0.33830
H1603       H  0.96432119  0.41641164  0.04725187     0.25620
H1604       H  0.96790200  0.33279259  0.87650303     0.31560
H1605       H  0.87119845  0.22868840  0.89720135     0.37470
H1606       H  0.91858384  0.39294005  0.11178707     0.31930
H1607       H  0.83979666  0.30027174  0.14361586     0.30810
H1608       H  0.81891576  0.24949286  0.12041701     0.32490
H1609       H  0.82571928  0.20103884  0.97014050     0.31450
H1610       H  0.88753686  0.38798969  0.02276351     0.35450
H1611       H  0.84752408  0.36497638  0.97144664     0.28190
H1612       H  0.95567065  0.26071328  0.07552370     0.32420
H1613       H  0.87667656  0.20399843  0.96029925     0.35270
H1614       H  0.87134358  0.30748327  0.15221784     0.27880
H1615       H  0.82739568  0.34453932  0.93967956     0.40750
H1616       H  0.98975490  0.36769908  0.94889693     0.30810
H1617       H  0.97430510  0.40072269  0.01611693     0.38420
H1618       H  0.81937789  0.21674599  0.00524075     0.30270
H1619       H  0.94271626  0.30349348  0.87298051     0.30340
H1620       H  0.93794757  0.24683431  0.03677826     0.30600
C1621       C  0.54754824  0.39707916  0.17662623    -0.00580
C1622       C  0.52341711  0.40163116  0.18155951    -0.12450
C1623       C  0.00068364  0.39011185  0.15533861     0.01660
C1624       C  0.00182957  0.37361669  0.12303003    -0.00660
C1625       C  0.52663944  0.37024072  0.11709719    -0.12390
C1626       C  0.54926730  0.38170046  0.14354125     0.01540
H1627       H  0.52137150  0.41237419  0.20784663     0.14520
H1628       H  0.52803864  0.35788166  0.09238253     0.14520
C1629       C  0.57339346  0.37596471  0.13766545     0.36180
C1630       C  0.97546405  0.39329019  0.16486461     0.36080
N1631       N  0.59277795  0.37142246  0.13307160    -0.44170
N1632       N  0.95531812  0.39580509  0.17305610    -0.44160
C1633       C  0.90256059  0.24491066  0.15528819    -0.00580
C1634       C  0.91718864  0.25406002  0.19090096    -0.12450
C1635       C  0.91769413  0.23511463  0.21835468     0.01660
C1636       C  0.90401533  0.20679285  0.20947553    -0.00660
C1637       C  0.89021297  0.19786558  0.17334182    -0.12390
C1638       C  0.88943078  0.21661395  0.14625163     0.01540
H1639       H  0.92751499  0.27586580  0.19763299     0.14520
H1640       H  0.87948988  0.17605363  0.16664988     0.14520
C1641       C  0.87554307  0.20636300  0.10895354     0.36180
C1642       C  0.93068444  0.24497239  0.25622456     0.36080
N1643       N  0.86455202  0.19822066  0.07900567    -0.44170
N1644       N  0.94089787  0.25282995  0.28670335    -0.44160
C1645       C  0.97333029  0.23243784  0.36984691    -0.00580
C1646       C  0.00022733  0.23734630  0.35567884    -0.12450
C1647       C  0.52169987  0.26384081  0.35447564     0.01660
C1648       C  0.51648054  0.28591356  0.36808702    -0.00660
C1649       C  0.99029623  0.28114678  0.38443956    -0.12390
C1650       C  0.96857853  0.25451293  0.38540589     0.01540
H1651       H  0.50420219  0.22050586  0.34406492     0.14520
H1652       H  0.98647162  0.29836163  0.39477257     0.14520
C1653       C  0.94130232  0.25092372  0.39954579     0.36180
C1654       C  0.54859427  0.26804554  0.33774222     0.36080
N1655       N  0.91957110  0.24848610  0.41089480    -0.44170
N1656       N  0.57010435  0.27142089  0.32427924    -0.44160
C1657       C  0.72113779  0.49669565  0.29850245    -0.00580
C1658       C  0.73641129  0.99797492  0.33263191    -0.12450
C1659       C  0.76418458  0.00179609  0.33114779     0.01660
C1660       C  0.78033640  0.01228486  0.29674235    -0.00660
C1661       C  0.76579154  0.01256263  0.26208330    -0.12390
C1662       C  0.73617798  0.50339506  0.26231935     0.01540
H1663       H  0.72631006  0.99463207  0.36107465     0.14520
H1664       H  0.77747408  0.52017536  0.23498052     0.14520
C1665       C  0.72217971  0.50211443  0.22555990     0.36180
C1666       C  0.77526271  0.99514525  0.36615050     0.36080
N1667       N  0.71105606  0.50099854  0.19591584    -0.44170
N1668       N  0.78356637  0.98963132  0.39451691    -0.44160
C1669       C  0.65649117  0.03199518  0.53920351    -0.00580
C1670       C  0.62804077  0.02040962  0.52737710    -0.12450
C1671       C  0.61850571  0.50285336  0.49389566     0.01660
C1672       C  0.63766589  0.49674555  0.47053752    -0.00660
C1673       C  0.66617884  0.00916390  0.48185308    -0.12390
C1674       C  0.67556963  0.02603372  0.51547007     0.01540
H1675       H  0.61295258  0.02467001  0.54476243     0.14520
H1676       H  0.68162052  0.00524984  0.46477814     0.14520
C1677       C  0.70518000  0.03663247  0.52439383     0.36180
C1678       C  0.58890967  0.49129907  0.48483796     0.36080
N1679       N  0.72887806  0.04469362  0.53137620    -0.44170
N1680       N  0.56513430  0.48213444  0.47780962    -0.44160
C1681       C  0.80546808  0.11954980  0.46843166    -0.00580
C1682       C  0.81767763  0.13941443  0.49846730    -0.12450
C1683       C  0.80123351  0.14311506  0.52828720     0.01660
C1684       C  0.77215980  0.12650751  0.52854530    -0.00660
C1685       C  0.75960281  0.10788151  0.49776932    -0.12390
C1686       C  0.77586059  0.10441858  0.46744411     0.01540
H1687       H  0.84028286  0.15157228  0.49946078     0.14520
H1688       H  0.73698322  0.09563984  0.49791152     0.14520
C1689       C  0.76100457  0.08594527  0.43569686     0.36180
C1690       C  0.81479052  0.16285042  0.55948299     0.36080
N1691       N  0.74757632  0.07117129  0.41108652    -0.44170
N1692       N  0.82558710  0.17868928  0.58444797    -0.44160
C1693       C  0.76713260  0.21228878  0.81627158    -0.00580
C1694       C  0.75867948  0.20669508  0.85585171    -0.12450
C1695       C  0.77555021  0.22315790  0.88686466     0.01660
C1696       C  0.80111872  0.24632793  0.87877974    -0.00660
C1697       C  0.80848396  0.25310875  0.83911164    -0.12390
C1698       C  0.79202767  0.23620604  0.80811194     0.01540
H1699       H  0.73979241  0.18839000  0.86272454     0.14520
H1700       H  0.82809079  0.27065469  0.83230830     0.14520
C1701       C  0.80162068  0.24328395  0.76803695     0.36180
C1702       C  0.76667355  0.21540522  0.92701038     0.36080
N1703       N  0.80925633  0.24896840  0.73589645    -0.44170
N1704       N  0.75959740  0.20931712  0.95923949    -0.44160
C1705       C  0.95648009  0.12228835  0.18267879    -0.00580
C1706       C  0.98471061  0.14003899  0.19145228    -0.12450
C1707       C  0.50498273  0.15115649  0.16192489     0.01660
C1708       C  0.49767205  0.14415701  0.12223328    -0.00660
C1709       C  0.97012638  0.12475726  0.11313128    -0.12390
C1710       C  0.94946432  0.11385231  0.14305416     0.01540
H1711       H  0.99081532  0.14639314  0.22169263     0.14520
H1712       H  0.96452158  0.11887082  0.08260704     0.14520
C1713       C  0.92112861  0.09532673  0.13219417     0.36180
C1714       C  0.53310685  0.17043451  0.17306010     0.36080
N1715       N  0.89841449  0.08037062  0.12345601    -0.44170
N1716       N  0.55559815  0.18592582  0.18193071    -0.44160
C1717       C  0.77185164  0.28058088  0.04123952    -0.00580
C1718       C  0.75891399  0.25899459  0.06810433    -0.12450
C1719       C  0.73109398  0.23967662  0.06292005     0.01660
C1720       C  0.71600023  0.24182693  0.03031538    -0.00660
C1721       C  0.72775788  0.26496587  0.00633637    -0.12390
C1722       C  0.75517226  0.28462691  0.01199001     0.01540
H1723       H  0.77106088  0.25579443  0.09140209     0.14520
H1724       H  0.71540600  0.26776645  0.98292392     0.14520
C1725       C  0.76530011  0.30831948  0.98684552     0.36180
C1726       C  0.71927878  0.21699589  0.08975910     0.36080
N1727       N  0.77245964  0.32709210  0.96639632    -0.44170
N1728       N  0.70984997  0.19886264  0.11136474    -0.44160
C1729       C  0.99825061  0.22962306  0.96315070    -0.00580
C1730       C  0.50212237  0.24594848  0.92927901    -0.12450
C1731       C  0.49634524  0.26934984  0.93026252     0.01660
C1732       C  0.98940174  0.27832815  0.96646320    -0.00660
C1733       C  0.98766232  0.26273791  0.99991040    -0.12390
C1734       C  0.98809539  0.23726515  0.99757906     0.01540
H1735       H  0.51000455  0.24074973  0.90229169     0.14520
H1736       H  0.98503545  0.27004803  0.02832940     0.14520
C1737       C  0.97792403  0.21983778  0.03162522     0.36180
C1738       C  0.49942641  0.28459076  0.89460105     0.36080
N1739       N  0.96958901  0.20606746  0.05898529    -0.44170
N1740       N  0.50200553  0.29684061  0.86597485    -0.44160
C1741       C  0.59218855  0.30872240  0.21009934    -0.00580
C1742       C  0.61708763  0.31350748  0.18929464    -0.12450
C1743       C  0.61804415  0.29545909  0.16025464     0.01660
C1744       C  0.59340454  0.27177942  0.15054728    -0.00660
C1745       C  0.56829069  0.26684312  0.17122640    -0.12390
C1746       C  0.56754101  0.28498329  0.20099192     0.01540
H1747       H  0.63621407  0.33184109  0.19546774     0.14520
H1748       H  0.54919316  0.24870037  0.16423767     0.14520
C1749       C  0.54165732  0.27830096  0.22245693     0.36180
C1750       C  0.64458867  0.30280224  0.14014084     0.36080
N1751       N  0.52092620  0.27288434  0.23977031    -0.44170
N1752       N  0.66609839  0.30912857  0.12457609    -0.44160
C1753       C  0.59540576  0.13677688  0.84997942    -0.00580
C1754       C  0.61515141  0.15345810  0.82308684    -0.12450
C1755       C  0.63784056  0.14798093  0.81318938     0.01660
C1756       C  0.63599398  0.12101271  0.81703558    -0.00660
C1757       C  0.61234700  0.10163703  0.83697517    -0.12390
C1758       C  0.59324808  0.11005000  0.85599777     0.01540
H1759       H  0.61724268  0.17422226  0.81916087     0.14520
H1760       H  0.61039098  0.08102843  0.84108390     0.14520
C1761       C  0.57343992  0.09215790  0.88423658     0.36180
C1762       C  0.66353527  0.17208078  0.80541250     0.36080
N1763       N  0.55764516  0.07786581  0.90706300    -0.44170
N1764       N  0.68304989  0.19265460  0.80054821    -0.44160
C1765       C  0.84280116  0.48838107  0.53601714    -0.00580
C1766       C  0.86531758  0.01459989  0.53919372    -0.12450
C1767       C  0.87265747  0.03314177  0.50758144     0.01660
C1768       C  0.85745373  0.02553379  0.47174459    -0.00660
C1769       C  0.83542858  0.99903401  0.46846101    -0.12390
C1770       C  0.82806260  0.48058661  0.49996713     0.01540
H1771       H  0.87654154  0.02096862  0.56687293     0.14520
H1772       H  0.82402633  0.49261971  0.44101488     0.14520
C1773       C  0.80545033  0.45350670  0.49442324     0.36180
C1774       C  0.89468724  0.06044528  0.51358236     0.36080
N1775       N  0.78746155  0.43175905  0.48982008    -0.44170
N1776       N  0.91221605  0.08238956  0.51858469    -0.44160
C1777       C  0.73223992  0.02057837  0.70865415    -0.00580
C1778       C  0.74467575  0.01697721  0.67346831    -0.12450
C1779       C  0.76680857  0.50940412  0.67307237     0.01660
C1780       C  0.77452304  0.50039398  0.70810648    -0.00660
C1781       C  0.76135069  0.00269622  0.74359001    -0.12390
C1782       C  0.74117444  0.01354623  0.74431996     0.01540
H1783       H  0.73800018  0.02129825  0.64541969     0.14520
H1784       H  0.76673946  0.99597692  0.77087585     0.14520
C1785       C  0.72986132  0.01678546  0.78192086     0.36180
C1786       C  0.78065983  0.51104414  0.63544853     0.36080
N1787       N  0.72092035  0.01941900  0.81220017    -0.44170
N1788       N  0.79145982  0.51255703  0.60509900    -0.44160
C1789       C  0.77139351  0.28456593  0.64460017    -0.00580
C1790       C  0.76645250  0.27648832  0.68383913    -0.12450
C1791       C  0.74619496  0.25070393  0.69362146     0.01660
C1792       C  0.73173982  0.23158672  0.66326331    -0.00660
C1793       C  0.73874786  0.23898680  0.62368857    -0.12390
C1794       C  0.75825967  0.26542141  0.61417034     0.01540
H1795       H  0.77583041  0.29146284  0.70725201     0.14520
H1796       H  0.72842192  0.22445450  0.60006737     0.14520
C1797       C  0.76353630  0.27290137  0.57319301     0.36180
C1798       C  0.73968615  0.24586290  0.73508199     0.36080
N1799       N  0.76775018  0.27889419  0.54035575    -0.44170
N1800       N  0.73460016  0.24271392  0.76839669    -0.44160
C1801       C  0.88319081  0.36553338  0.86022427    -0.00580
C1802       C  0.85382088  0.35441880  0.85600921    -0.12450
C1803       C  0.84102509  0.36851450  0.83715859     0.01660
C1804       C  0.85731017  0.39245049  0.81618749    -0.00660
C1805       C  0.88691060  0.40313821  0.81778222    -0.12390
C1806       C  0.89995134  0.39045614  0.84126694     0.01540
H1807       H  0.84047772  0.33541616  0.87063349     0.14520
H1808       H  0.89967845  0.42098618  0.80053372     0.14520
C1809       C  0.93005180  0.40342260  0.84609608     0.36180
C1810       C  0.81068584  0.35761829  0.83897743     0.36080
N1811       N  0.95421165  0.41389847  0.85008128    -0.44170
N1812       N  0.78648409  0.34933971  0.84079469    -0.44160
C1813       C  0.68442964  0.26582861  0.85615372    -0.00580
C1814       C  0.67180544  0.27372104  0.82580636    -0.12450
C1815       C  0.68742787  0.29027400  0.79462741     0.01660
C1816       C  0.71730574  0.30057238  0.79294681    -0.00660
C1817       C  0.72987945  0.29092145  0.82192475    -0.12390
C1818       C  0.71378677  0.27379820  0.85323194     0.01540
H1819       H  0.64925290  0.26734351  0.82696714     0.14520
H1820       H  0.75241884  0.29756371  0.82115351     0.14520
C1821       C  0.72808479  0.26604769  0.88315440     0.36180
C1822       C  0.67146269  0.29615530  0.76495882     0.36080
N1823       N  0.73960646  0.25985120  0.90714575    -0.44170
N1824       N  0.65781004  0.30028510  0.74187181    -0.44160
C1825       C  0.71724773  0.40116374  0.53186695    -0.00580
C1826       C  0.70620815  0.42053099  0.53648111    -0.12450
C1827       C  0.68540760  0.42024139  0.51159055     0.01660
C1828       C  0.67532318  0.40028763  0.48148547    -0.00660
C1829       C  0.68591661  0.38068042  0.47684123    -0.12390
C1830       C  0.70701908  0.38107060  0.50154142     0.01540
H1831       H  0.71352166  0.43582338  0.55994948     0.14520
H1832       H  0.67856516  0.36582390  0.45275863     0.14520
C1833       C  0.71862492  0.36163750  0.49359996     0.36180
C1834       C  0.67430012  0.44020516  0.51808502     0.36080
N1835       N  0.72787952  0.34609038  0.48684040    -0.44170
N1836       N  0.66532554  0.45610648  0.52351500    -0.44160
Zr1837     Zr  0.77917906  0.93766912  0.63743688     2.17510
O1838       O  0.74091009  0.95167266  0.63924491    -0.51750
O1839       O  0.80913296  0.96653612  0.58578404    -0.74960
O1840       O  0.80098657  0.98080682  0.67280766    -0.81740
O1841       O  0.73893700  0.87917483  0.56891592    -0.83490
O1842       O  0.79557030  0.97255903  0.73692164    -0.79110
O1843       O  0.75237949  0.92487439  0.57794352    -0.90750
O1844       O  0.84798054  0.95826150  0.58341319    -0.76710
O1845       O  0.82301322  0.94920798  0.66889123    -0.86200
O1846       O  0.79884622  0.91185056  0.60194731    -0.85890
O1847       O  0.76732177  0.92416109  0.70487452    -0.72650
O1848       O  0.74615631  0.89071822  0.64388000    -0.84780
Zr1849     Zr  0.79778476  0.86155056  0.70948669     2.26420
Zr1850     Zr  0.81188756  0.93568357  0.73651968     2.06270
Zr1851     Zr  0.76718174  0.86522173  0.61031909     2.10050
Zr1852     Zr  0.84226944  0.92309046  0.63317510     1.78760
O1853       O  0.72587072  0.82806575  0.58153784    -0.93590
O1854       O  0.88523736  0.96251152  0.65291648    -0.41390
O1855       O  0.81092173  0.87508315  0.64185431    -0.78030
O1856       O  0.83145417  0.90921685  0.70071980    -0.96710
O1857       O  0.77849048  0.88836490  0.74361043    -0.90020
O1858       O  0.75453764  0.85064988  0.67732928    -0.92860
C1859       C  0.83303400  0.97022356  0.57103091     1.00890
C1860       C  0.73788148  0.90179161  0.56086376     1.13820
C1861       C  0.79222181  0.98471063  0.70639280     1.04600
O1862       O  0.85687552  0.97589925  0.74213623    -0.95010
O1863       O  0.83743776  0.91954422  0.78318930    -0.90760
O1864       O  0.83346885  0.87856979  0.75839105    -0.83900
C1865       C  0.84279107  0.89831427  0.78339109     1.11240
O1866       O  0.70141296  0.89716839  0.70531173    -0.96990
Zr1867     Zr  0.73499250  0.87730560  0.71079363     1.88940
O1868       O  0.75985615  0.82751596  0.75305531    -0.73640
O1869       O  0.79942950  0.94171794  0.80415882    -0.52900
O1870       O  0.72026036  0.88743738  0.77508010    -0.97580
O1871       O  0.69329776  0.84390506  0.67716198    -0.54800
O1872       O  0.72291345  0.83829902  0.75294358    -0.74150
C1873       C  0.73467468  0.82331976  0.76432918     0.98190
O1874       O  0.82067076  0.83552412  0.73949927    -0.62970
O1875       O  0.79297900  0.86438217  0.55065208    -0.57780
O1876       O  0.80142889  0.83062155  0.65940787    -0.94460
O1877       O  0.76524545  0.82082343  0.61822455    -0.92890
O1878       O  0.85445039  0.90493815  0.57340617    -0.93240
O1879       O  0.88200837  0.91202834  0.64213862    -0.92030
C1880       C  0.78106988  0.81376727  0.63862719     1.17030
H1881       H  0.80094702  0.91582908  0.57413652     0.32980
H1882       H  0.84979661  0.91313079  0.71099088     0.43830
H1883       H  0.74218327  0.83129480  0.67873976     0.37350
H1884       H  0.75706682  0.93357521  0.71642002     0.33830
H1885       H  0.89692715  0.96770427  0.62868990     0.25620
H1886       H  0.81037404  0.96153737  0.80998423     0.31560
H1887       H  0.70197360  0.87170583  0.78062259     0.37470
H1888       H  0.86998517  0.92097350  0.56133820     0.31930
H1889       H  0.78768385  0.84468854  0.54537427     0.30930
H1890       H  0.73297944  0.82184728  0.55805348     0.32490
H1891       H  0.67714258  0.84212926  0.69392028     0.31450
H1892       H  0.87372917  0.89364937  0.65425556     0.35450
H1893       H  0.80611354  0.82103328  0.75542853     0.28190
H1894       H  0.72413332  0.93547456  0.62982014     0.32420
H1895       H  0.68451237  0.88524834  0.72051626     0.35270
H1896       H  0.78374783  0.86985294  0.52944269     0.27880
H1897       H  0.82555934  0.82560182  0.71817827     0.40750
H1898       H  0.85489797  0.98991125  0.72563643     0.30810
H1899       H  0.87955588  0.97759265  0.65728383     0.38420
H1900       H  0.69425802  0.82609286  0.67952358     0.30270
H1901       H  0.77965413  0.93905343  0.80273824     0.30340
H1902       H  0.73687380  0.95264943  0.66762934     0.30600
Zr1903     Zr  0.55719374  0.71626249  0.03674563     2.17510
O1904       O  0.54560072  0.75467686  0.04969530    -0.51750
O1905       O  0.52441558  0.68215228  0.08173289    -0.74960
O1906       O  0.51356142  0.70170846  0.00038402    -0.81740
O1907       O  0.61575299  0.75161716  0.10780887    -0.83490
O1908       O  0.52252652  0.70401291  0.93573140    -0.79110
O1909       O  0.56972363  0.74152265  0.09821336    -0.90750
O1910       O  0.53214685  0.64387453  0.07720849    -0.76710
O1911       O  0.54498330  0.67343688  0.00386192    -0.86200
O1912       O  0.58444652  0.69709975  0.06825533    -0.85890
O1913       O  0.57046221  0.72842288  0.96914647    -0.72650
O1914       O  0.60522659  0.74871981  0.02644962    -0.84780
Zr1915     Zr  0.63380020  0.69750955  0.95634401     2.26420
Zr1916     Zr  0.55740452  0.68467458  0.93591565     2.06270
Zr1917     Zr  0.63210406  0.72890022  0.05757186     2.10050
Zr1918     Zr  0.57312924  0.65483550  0.03491337     1.78760
O1919       O  0.67265313  0.77335489  0.06250737    -0.93590
O1920       O  0.53885113  0.61045946  0.01036072    -0.41390
O1921       O  0.62156824  0.68604893  0.02462332    -0.78030
O1922       O  0.58538974  0.66529837  0.96736245    -0.96710
O1923       O  0.60592531  0.71628522  0.92502951    -0.90020
O1924       O  0.64496453  0.74005317  0.98995381    -0.92860
C1925       C  0.51895199  0.65731896  0.09096189     1.00890
C1926       C  0.59289595  0.75352745  0.11704641     1.13820
C1927       C  0.51088071  0.70960559  0.96598340     1.04600
O1928       O  0.51393635  0.64252624  0.93499925    -0.95010
O1929       O  0.56988136  0.65650485  0.88854596    -0.90760
O1930       O  0.61535364  0.66558909  0.90254179    -0.83900
C1931       C  0.59253346  0.65328539  0.88298422     1.11240
O1932       O  0.60434854  0.79595777  0.97276500    -0.96990
Zr1933     Zr  0.61817958  0.75906363  0.95831722     1.88940
O1934       O  0.66297396  0.72875721  0.90358146    -0.73640
O1935       O  0.55049414  0.69418003  0.86797362    -0.52900
O1936       O  0.59786741  0.76831456  0.89933950    -0.97580
O1937       O  0.65790474  0.80248695  0.97537961    -0.54800
O1938       O  0.65333486  0.76586475  0.90702274    -0.74150
C1939       C  0.66629118  0.75260618  0.89163227     0.98190
O1940       O  0.65527969  0.66547747  0.95156674    -0.62970
O1941       O  0.64423236  0.71759051  0.12179760    -0.57780
O1942       O  0.67987384  0.71723388  0.98574474    -0.94460
O1943       O  0.66938190  0.71463522  0.05035572    -0.92890
O1944       O  0.58850068  0.64627606  0.09862233    -0.93240
O1945       O  0.59051992  0.61979318  0.02969791    -0.92030
C1946       C  0.68701159  0.72238410  0.02197294     1.17030
H1947       H  0.58016938  0.69445465  0.09607154     0.32980
H1948       H  0.58155219  0.64749916  0.95624167     0.43830
H1949       H  0.66447703  0.75282385  0.98736101     0.37350
H1950       H  0.56167102  0.73957814  0.95983694     0.33830
H1951       H  0.53157482  0.59919006  0.03421994     0.25620
H1952       H  0.52996542  0.68418538  0.86366241     0.31560
H1953       H  0.61381628  0.78314883  0.88584409     0.37470
H1954       H  0.57263964  0.62942432  0.10821917     0.31930
H1955       H  0.65535754  0.73552540  0.13487410     0.30810
H1956       H  0.68604936  0.77019537  0.07960036     0.32490
H1957       H  0.66183460  0.81354639  0.95115277     0.31450
H1958       H  0.60624980  0.62720227  0.01053737     0.35450
H1959       H  0.66290204  0.66550477  0.97812105     0.28190
H1960       H  0.52742716  0.74711455  0.06393999     0.32420
H1961       H  0.61202679  0.80914556  0.95095806     0.35270
H1962       H  0.62627984  0.70964117  0.13668884     0.27880
H1963       H  0.63940700  0.64700826  0.94916623     0.40750
H1964       H  0.50045580  0.64682270  0.95094013     0.30810
H1965       H  0.52291736  0.61392245  0.00118206     0.38420
H1966       H  0.67433285  0.79830550  0.97789752     0.30270
H1967       H  0.55436534  0.71382644  0.86811580     0.30340
H1968       H  0.54185886  0.76025047  0.02359305     0.30600
Zr1969     Zr  0.72025053  0.58501995  0.64161083     2.17510
O1970       O  0.76194789  0.57734810  0.62949508    -0.51750
O1971       O  0.68977311  0.55496504  0.59052563    -0.74960
O1972       O  0.70882333  0.54075081  0.67063407    -0.81740
O1973       O  0.75236106  0.64648123  0.57391072    -0.83490
O1974       O  0.70646679  0.54520526  0.73650169    -0.79110
O1975       O  0.74537729  0.60210312  0.58128614    -0.90750
O1976       O  0.65017989  0.56146429  0.58892357    -0.76710
O1977       O  0.67545552  0.56804342  0.67289480    -0.86200
O1978       O  0.69858239  0.61046409  0.61205565    -0.85890
O1979       O  0.73063504  0.59504675  0.71039191    -0.72650
O1980       O  0.75089758  0.63237135  0.65446364    -0.84780
Zr1981     Zr  0.69366429  0.65130639  0.72766901     2.26420
Zr1982     Zr  0.68489081  0.57797956  0.74224468     2.06270
Zr1983     Zr  0.72793179  0.65766368  0.62688821     2.10050
Zr1984     Zr  0.65402241  0.59381685  0.64315824     1.78760
O1985       O  0.77080283  0.70041029  0.62566235    -0.93590
O1986       O  0.61208651  0.55262875  0.66011498    -0.41390
O1987       O  0.68343137  0.64116091  0.65866319    -0.78030
O1988       O  0.66269608  0.60388050  0.71250231    -0.96710
O1989       O  0.71557153  0.62538898  0.75523781    -0.90020
O1990       O  0.73812999  0.66742860  0.69507866    -0.92860
C1991       C  0.66593216  0.55048150  0.57530141     1.00890
C1992       C  0.75534410  0.62501592  0.56332462     1.13820
C1993       C  0.71395769  0.53559506  0.70563032     1.04600
O1994       O  0.64352033  0.53400773  0.74340375    -0.95010
O1995       O  0.65338275  0.58942546  0.78740081    -0.90760
O1996       O  0.68183549  0.63358172  0.79270590    -0.83900
C1997       C  0.65823967  0.61384690  0.79949770     1.11240
O1998       O  0.79758853  0.62764999  0.71213487    -0.96990
Zr1999     Zr  0.76019566  0.64217808  0.72331697     1.88940
O2000       O  0.72710636  0.68411335  0.77568549    -0.73640
O2001       O  0.69594001  0.57122428  0.80951948    -0.52900
O2002       O  0.77136497  0.62752008  0.78568618    -0.97580
O2003       O  0.80396252  0.67986035  0.70195444    -0.54800
O2004       O  0.76783052  0.67944569  0.76991616    -0.74150
C2005       C  0.75295691  0.69073454  0.78515066     0.98190
O2006       O  0.64972601  0.65597248  0.72087342    -0.62970
O2007       O  0.71607001  0.67306246  0.56558461    -0.57780
O2008       O  0.70488634  0.69665329  0.70770296    -0.94460
O2009       O  0.70324491  0.68513905  0.64463739    -0.92890
O2010       O  0.64186342  0.61304525  0.58586717    -0.93240
O2011       O  0.61346516  0.60390554  0.65246398    -0.92030
C2012       C  0.71149440  0.70335673  0.67203019     1.17030
H2013       H  0.69669968  0.60760853  0.58385058     0.32980
H2014       H  0.64433736  0.59936717  0.72364687     0.43830
H2015       H  0.74936241  0.68681780  0.69958716     0.37350
H2016       H  0.74229232  0.58655901  0.71921641     0.33830
H2017       H  0.60039637  0.54795341  0.63603709     0.25620
H2018       H  0.68593216  0.55115634  0.81339521     0.31560
H2019       H  0.78795795  0.64366092  0.79576056     0.37470
H2020       H  0.62688429  0.59713768  0.57237563     0.31930
H2021       H  0.73434114  0.68476367  0.55312088     0.30810
H2022       H  0.77756135  0.70210705  0.59804578     0.32490
H2023       H  0.81477235  0.68730263  0.72649157     0.31450
H2024       H  0.60931192  0.60203499  0.68108038     0.35450
H2025       H  0.65207716  0.67378680  0.73229798     0.28190
H2026       H  0.75579214  0.56097039  0.61201600     0.32420
H2027       H  0.81230645  0.63790825  0.73176385     0.35270
H2028       H  0.70797966  0.65641983  0.54856369     0.27880
H2029       H  0.63518343  0.64147450  0.73670044     0.40750
H2030       H  0.64707848  0.52276214  0.72265326     0.30810
H2031       H  0.61858172  0.53799395  0.66178151     0.38420
H2032       H  0.79858449  0.69436722  0.69341858     0.30270
H2033       H  0.71610732  0.57514693  0.80864830     0.30340
H2034       H  0.76648876  0.57172337  0.65507241     0.30600
Zr2035     Zr  0.83850541  0.57631053  0.36994419     2.17510
O2036       O  0.78801985  0.56094564  0.37157565    -0.51750
O2037       O  0.84278085  0.54750678  0.42216578    -0.74960
O2038       O  0.82246947  0.53295310  0.33416590    -0.81740
O2039       O  0.84772175  0.63710074  0.43289790    -0.83490
O2040       O  0.82663556  0.53993899  0.26945654    -0.79110
O2041       O  0.81720909  0.59248597  0.42200518    -0.90750
O2042       O  0.88932626  0.55794989  0.42650784    -0.76710
O2043       O  0.87288364  0.56473197  0.33916443    -0.86200
O2044       O  0.88038286  0.60344111  0.40506341    -0.85890
O2045       O  0.83951328  0.58796410  0.30142274    -0.72650
O2046       O  0.84743628  0.62311919  0.36031789    -0.84780
Zr2047     Zr  0.92554663  0.65022332  0.29763211     2.26420
Zr2048     Zr  0.87509738  0.57683205  0.27052880     2.06270
Zr2049     Zr  0.88998660  0.65020894  0.39404857     2.10050
Zr2050     Zr  0.91449597  0.59139917  0.37511281     1.78760
O2051       O  0.87879600  0.68839901  0.41068468    -0.93590
O2052       O  0.92237136  0.55110065  0.35915097    -0.41390
O2053       O  0.92536147  0.63900412  0.36563964    -0.78030
O2054       O  0.91751634  0.60332701  0.30641071    -0.96710
O2055       O  0.88367168  0.62370736  0.26215879    -0.90020
O2056       O  0.89106635  0.66190899  0.32660519    -0.92860
C2057       C  0.86359107  0.54484242  0.43793638     1.00890
C2058       C  0.82447004  0.61596843  0.43904389     1.13820
C2059       C  0.81163575  0.52826781  0.29978086     1.04600
O2060       O  0.88677588  0.53785174  0.26804083    -0.95010
O2061       O  0.91405644  0.59444592  0.22070260    -0.90760
O2062       O  0.94145483  0.63907654  0.23693530    -0.83900
C2063       C  0.93550365  0.61785778  0.21505510     1.11240
O2064       O  0.79801364  0.61785876  0.30064311    -0.96990
Zr2065     Zr  0.84877260  0.63450448  0.29269878     1.88940
O2066       O  0.92070906  0.68287179  0.25277589    -0.73640
O2067       O  0.85812538  0.56784619  0.20288709    -0.52900
O2068       O  0.82632377  0.61786713  0.22907413    -0.97580
O2069       O  0.83475177  0.67054812  0.31200550    -0.54800
O2070       O  0.87387866  0.67119230  0.24833947    -0.74150
C2071       C  0.89954678  0.68579324  0.23900696     0.98190
O2072       O  0.97626851  0.66451053  0.29447994    -0.62970
O2073       O  0.91090249  0.65329611  0.45869792    -0.57780
O2074       O  0.95176454  0.69344722  0.33014770    -0.94460
O2075       O  0.93140198  0.69396337  0.38932242    -0.92890
O2076       O  0.94212705  0.61093926  0.43425039    -0.93240
O2077       O  0.96410321  0.60253602  0.36558814    -0.92030
C2078       C  0.95055464  0.70487336  0.36299010     1.17030
H2079       H  0.87836854  0.59989720  0.43300744     0.32980
H2080       H  0.93286284  0.60045601  0.29477157     0.43830
H2081       H  0.89590048  0.68121533  0.32407307     0.37350
H2082       H  0.82102932  0.57836255  0.29015236     0.33830
H2083       H  0.92961468  0.54700865  0.38381687     0.25620
H2084       H  0.85230675  0.54797137  0.19846073     0.31560
H2085       H  0.82405532  0.63358836  0.21781412     0.37470
H2086       H  0.94586114  0.59589363  0.44496764     0.31930
H2087       H  0.91829682  0.67293874  0.46628453     0.30810
H2088       H  0.88372070  0.69239412  0.43891338     0.32490
H2089       H  0.83129286  0.67762179  0.28686970     0.31450
H2090       H  0.97291554  0.62225027  0.35888995     0.35450
H2091       H  0.98315389  0.67006797  0.32172309     0.28190
H2092       H  0.78026394  0.54379211  0.38676432     0.32420
H2093       H  0.79201190  0.62669550  0.27967244     0.35270
H2094       H  0.89472276  0.64395809  0.47666537     0.27880
H2095       H  0.97832475  0.64728141  0.29028702     0.40750
H2096       H  0.87160808  0.52339062  0.28324092     0.30810
H2097       H  0.90332003  0.53590180  0.35620610     0.38420
H2098       H  0.85197309  0.68568724  0.32263733     0.30270
H2099       H  0.84034489  0.56991210  0.20331629     0.30340
H2100       H  0.78147242  0.55590932  0.34414867     0.30600
Zr2101     Zr  0.65292308  0.93930004  0.37392679     2.17510
O2102       O  0.70025511  0.94488785  0.38864364    -0.51750
O2103       O  0.64938362  0.97179349  0.42093742    -0.74960
O2104       O  0.68014704  0.98139223  0.33845460    -0.81740
O2105       O  0.63552649  0.87961078  0.44161068    -0.83490
O2106       O  0.67352158  0.97205773  0.27346987    -0.79110
O2107       O  0.66440242  0.92509607  0.43496773    -0.90750
O2108       O  0.60379316  0.96454342  0.42397536    -0.76710
O2109       O  0.62259968  0.95362807  0.33957433    -0.86200
O2110       O  0.60886267  0.91585460  0.40596812    -0.85890
O2111       O  0.65489375  0.92530036  0.30702147    -0.72650
O2112       O  0.64139586  0.89156817  0.36795217    -0.84780
Zr2113     Zr  0.56712819  0.86708658  0.29647389     2.26420
Zr2114     Zr  0.62316611  0.93890119  0.27232789     2.06270
Zr2115     Zr  0.59634564  0.86812361  0.39762961     2.10050
Zr2116     Zr  0.57856223  0.92989865  0.37194595     1.78760
O2117       O  0.60255562  0.82799869  0.41774952    -0.93590
O2118       O  0.57366153  0.97088753  0.35281034    -0.41390
O2119       O  0.56478607  0.88126146  0.36349000    -0.78030
O2120       O  0.57817606  0.91524688  0.30401432    -0.96710
O2121       O  0.61178181  0.89097156  0.26575923    -0.90020
O2122       O  0.59793168  0.85384807  0.33123279    -0.92860
C2123       C  0.62951089  0.97662728  0.43607572     1.00890
C2124       C  0.65684890  0.90178789  0.45125777     1.13820
C2125       C  0.68967892  0.98374365  0.30305486     1.04600
O2126       O  0.61513837  0.97999345  0.26984534    -0.95010
O2127       O  0.58717842  0.92226390  0.21928499    -0.90760
O2128       O  0.55529828  0.87879835  0.23386450    -0.83900
C2129       C  0.56489079  0.89987550  0.21191506     1.11240
O2130       O  0.69253638  0.89232407  0.31441064    -0.96990
Zr2131     Zr  0.64267184  0.87795357  0.30147732     1.88940
O2132       O  0.57348437  0.83456125  0.25013840    -0.73640
O2133       O  0.64153207  0.94793150  0.20523443    -0.52900
O2134       O  0.66829698  0.89095144  0.23923162    -0.97580
O2135       O  0.65288756  0.84094239  0.32562787    -0.54800
O2136       O  0.61840912  0.84040755  0.25783095    -0.74150
C2137       C  0.59427900  0.82881527  0.24171858     0.98190
O2138       O  0.51681259  0.85350686  0.28889936    -0.62970
O2139       O  0.57221918  0.86841708  0.45919826    -0.57780
O2140       O  0.53875687  0.82389896  0.32775314    -0.94460
O2141       O  0.55392041  0.82604972  0.39086416    -0.92890
O2142       O  0.54849869  0.91276381  0.42969645    -0.93240
O2143       O  0.53017989  0.92144330  0.35853604    -0.92030
C2144       C  0.53746765  0.81396567  0.36214720     1.17030
H2145       H  0.60982252  0.92035767  0.43375176     0.32980
H2146       H  0.56429509  0.91902939  0.29030124     0.43830
H2147       H  0.59218359  0.83429840  0.32948508     0.37350
H2148       H  0.67402167  0.93297387  0.29751287     0.33830
H2149       H  0.56632871  0.97642266  0.37671753     0.25620
H2150       H  0.64920103  0.96808863  0.20247926     0.31560
H2151       H  0.67192029  0.87502538  0.23136733     0.37470
H2152       H  0.54582332  0.92872845  0.44003963     0.31930
H2153       H  0.56360690  0.84905553  0.46767978     0.30810
H2154       H  0.59468180  0.82412365  0.44480251     0.32490
H2155       H  0.65719072  0.83267490  0.30170077     0.31450
H2156       H  0.52119222  0.90227249  0.34853523     0.35450
H2157       H  0.50888341  0.84955660  0.31591192     0.28190
H2158       H  0.70962368  0.96223988  0.40385395     0.32420
H2159       H  0.69881768  0.88212665  0.29514580     0.35270
H2160       H  0.58746297  0.87795407  0.47844116     0.27880
H2161       H  0.51524942  0.87054569  0.28202869     0.40750
H2162       H  0.63304716  0.99503095  0.27884100     0.30810
H2163       H  0.59318991  0.98523928  0.35010902     0.38420
H2164       H  0.63462980  0.82678847  0.33509082     0.30270
H2165       H  0.65823028  0.94399715  0.20514592     0.30340
H2166       H  0.71017458  0.94750710  0.36304412     0.30600
Zr2167     Zr  0.93548472  0.79902372  0.04519271     2.17510
O2168       O  0.93770402  0.75623519  0.06194947    -0.51750
O2169       O  0.97248307  0.83448605  0.08433136    -0.74960
O2170       O  0.97786786  0.80832598  0.00689717    -0.81740
O2171       O  0.87829535  0.76319303  0.11603033    -0.83490
O2172       O  0.96671306  0.80622165  0.94272399    -0.79110
O2173       O  0.92587792  0.78031292  0.11065451    -0.90750
O2174       O  0.96208462  0.87115945  0.08719467    -0.76710
O2175       O  0.94741110  0.84075257  0.01103037    -0.86200
O2176       O  0.91013717  0.82004644  0.07903718    -0.85890
O2177       O  0.91997416  0.78474972  0.97839472    -0.72650
O2178       O  0.88698317  0.76714801  0.03841874    -0.84780
Zr2179     Zr  0.85859677  0.81719298  0.97239194     2.26420
Zr2180     Zr  0.93287116  0.82748390  0.94388343     2.06270
Zr2181     Zr  0.86193461  0.78854873  0.07229312     2.10050
Zr2182     Zr  0.92147895  0.86134198  0.04516817     1.78760
O2183       O  0.82394154  0.74556577  0.09357041    -0.93590
O2184       O  0.95822787  0.90485667  0.02307963    -0.41390
O2185       O  0.87229715  0.83069249  0.03951894    -0.78030
O2186       O  0.90771770  0.84938546  0.97822714    -0.96710
O2187       O  0.88375250  0.79624855  0.93727657    -0.90020
O2188       O  0.84686900  0.77553859  0.00573685    -0.92860
C2189       C  0.97726029  0.85883729  0.09643414     1.00890
C2190       C  0.90229647  0.76464183  0.12634138     1.13820
C2191       C  0.97891321  0.80016031  0.97147874     1.04600
O2192       O  0.97360826  0.87193162  0.94365892    -0.95010
O2193       O  0.91215029  0.84611854  0.89231047    -0.90760
O2194       O  0.87629858  0.85104146  0.92353045    -0.83900
C2195       C  0.89218463  0.85407975  0.89382030     1.11240
O2196       O  0.88642569  0.71797978  0.98094801    -0.96990
Zr2197     Zr  0.87171572  0.75455506  0.97157126     1.88940
O2198       O  0.82969383  0.78579896  0.91932325    -0.73640
O2199       O  0.94710294  0.82316605  0.87648208    -0.52900
O2200       O  0.88791728  0.74400386  0.90868676    -0.97580
O2201       O  0.83408382  0.71172996  0.99445438    -0.54800
O2202       O  0.83264471  0.74548292  0.92720441    -0.74150
C2203       C  0.82234639  0.76025334  0.91056721     0.98190
O2204       O  0.83337800  0.84576667  0.96749068    -0.62970
O2205       O  0.85910923  0.81128511  0.13368919    -0.57780
O2206       O  0.81362720  0.80316846  0.00459772    -0.94460
O2207       O  0.81638770  0.78861923  0.06606678    -0.92890
O2208       O  0.90631605  0.87313390  0.10790384    -0.93240
O2209       O  0.90621102  0.89743112  0.03534207    -0.92030
C2210       C  0.80278610  0.79275232  0.03780248     1.17030
H2211       H  0.91542337  0.82362621  0.10645975     0.32980
H2212       H  0.91266980  0.86710065  0.96671042     0.43830
H2213       H  0.82703730  0.76349403  0.00427419     0.37350
H2214       H  0.92772067  0.77263084  0.96852803     0.33830
H2215       H  0.96432121  0.91641163  0.04725187     0.25620
H2216       H  0.96790198  0.83279257  0.87650301     0.31560
H2217       H  0.87119846  0.72868839  0.89720136     0.37470
H2218       H  0.91858385  0.89294005  0.11178707     0.31930
H2219       H  0.83979668  0.80027179  0.14361584     0.30810
H2220       H  0.81891580  0.74949288  0.12041708     0.32490
H2221       H  0.82571929  0.70103883  0.97014051     0.31450
H2222       H  0.88753687  0.88798969  0.02276353     0.35450
H2223       H  0.84752409  0.86497638  0.97144667     0.28190
H2224       H  0.95567065  0.76071327  0.07552368     0.32420
H2225       H  0.87667657  0.70399843  0.96029926     0.35270
H2226       H  0.87134359  0.80748327  0.15221785     0.27880
H2227       H  0.82739568  0.84453932  0.93967960     0.40750
H2228       H  0.98975490  0.86769907  0.94889692     0.30810
H2229       H  0.97430511  0.90072269  0.01611692     0.38420
H2230       H  0.81937789  0.71674599  0.00524077     0.30270
H2231       H  0.94271624  0.80349347  0.87298051     0.30340
H2232       H  0.93794758  0.74683431  0.03677824     0.30600
C2233       C  0.54754825  0.89707915  0.17662623    -0.00580
C2234       C  0.52341713  0.90163117  0.18155949    -0.12450
C2235       C  0.00068366  0.89011186  0.15533860     0.01660
C2236       C  0.00182959  0.87361668  0.12303003    -0.00660
C2237       C  0.52663943  0.87024070  0.11709720    -0.12390
C2238       C  0.54926730  0.88170044  0.14354126     0.01540
H2239       H  0.52137153  0.91237421  0.20784661     0.14520
H2240       H  0.52803863  0.85788162  0.09238255     0.14520
C2241       C  0.57339345  0.87596466  0.13766547     0.36180
C2242       C  0.97546408  0.89329021  0.16486459     0.36080
N2243       N  0.59277793  0.87142240  0.13307164    -0.44170
N2244       N  0.95531816  0.89580512  0.17305607    -0.44160
C2245       C  0.90256062  0.74491067  0.15528819    -0.00580
C2246       C  0.91718870  0.75406002  0.19090094    -0.12450
C2247       C  0.91769418  0.73511463  0.21835466     0.01660
C2248       C  0.90401536  0.70679285  0.20947553    -0.00660
C2249       C  0.89021297  0.69786558  0.17334183    -0.12390
C2250       C  0.88943078  0.71661395  0.14625164     0.01540
H2251       H  0.92751507  0.77586581  0.19763296     0.14520
H2252       H  0.87948987  0.67605363  0.16664990     0.14520
C2253       C  0.87554305  0.70636301  0.10895357     0.36180
C2254       C  0.93068453  0.74497239  0.25622452     0.36080
N2255       N  0.86455198  0.69822067  0.07900571    -0.44170
N2256       N  0.94089798  0.75282995  0.28670330    -0.44160
C2257       C  0.97333030  0.73243783  0.36984691    -0.00580
C2258       C  0.00022734  0.73734629  0.35567884    -0.12450
C2259       C  0.52169987  0.76384081  0.35447567     0.01660
C2260       C  0.51648054  0.78591356  0.36808703    -0.00660
C2261       C  0.99029624  0.78114677  0.38443956    -0.12390
C2262       C  0.96857854  0.75451292  0.38540589     0.01540
H2263       H  0.50420218  0.72050585  0.34406496     0.14520
H2264       H  0.98647164  0.79836162  0.39477257     0.14520
C2265       C  0.94130233  0.75092371  0.39954580     0.36180
C2266       C  0.54859427  0.76804553  0.33774225     0.36080
N2267       N  0.91957112  0.74848610  0.41089480    -0.44170
N2268       N  0.57010435  0.77142088  0.32427928    -0.44160
C2269       C  0.72113780  0.99669564  0.29850246    -0.00580
C2270       C  0.73641128  0.49797494  0.33263190    -0.12450
C2271       C  0.76418457  0.50179612  0.33114778     0.01660
C2272       C  0.78033638  0.51228488  0.29674234    -0.00660
C2273       C  0.76579153  0.51256264  0.26208329    -0.12390
C2274       C  0.73617799  0.00339505  0.26231935     0.01540
H2275       H  0.72631004  0.49463209  0.36107465     0.14520
H2276       H  0.77747409  0.02017536  0.23498053     0.14520
C2277       C  0.72217972  0.00211443  0.22555991     0.36180
C2278       C  0.77526270  0.49514528  0.36615051     0.36080
N2279       N  0.71105607  0.00099854  0.19591585    -0.44170
N2280       N  0.78356636  0.48963135  0.39451692    -0.44160
C2281       C  0.65649117  0.53199519  0.53920350    -0.00580
C2282       C  0.62804077  0.52040962  0.52737710    -0.12450
C2283       C  0.61850572  0.00285336  0.49389565     0.01660
C2284       C  0.63766589  0.99674554  0.47053753    -0.00660
C2285       C  0.66617884  0.50916393  0.48185306    -0.12390
C2286       C  0.67556962  0.52603375  0.51547005     0.01540
H2287       H  0.61295257  0.52467000  0.54476244     0.14520
H2288       H  0.68162052  0.50524987  0.46477811     0.14520
C2289       C  0.70518000  0.53663251  0.52439379     0.36180
C2290       C  0.58890968  0.99129907  0.48483795     0.36080
N2291       N  0.72887806  0.54469367  0.53137615    -0.44170
N2292       N  0.56513431  0.98213446  0.47780959    -0.44160
C2293       C  0.80546809  0.61954982  0.46843167    -0.00580
C2294       C  0.81767765  0.63941441  0.49846734    -0.12450
C2295       C  0.80123352  0.64311504  0.52828725     0.01660
C2296       C  0.77215981  0.62650752  0.52854531    -0.00660
C2297       C  0.75960282  0.60788155  0.49776930    -0.12390
C2298       C  0.77586060  0.60441862  0.46744408     0.01540
H2299       H  0.84028288  0.65157224  0.49946085     0.14520
H2300       H  0.73698322  0.59563991  0.49791147     0.14520
C2301       C  0.76100457  0.58594536  0.43569679     0.36180
C2302       C  0.81479055  0.66285037  0.55948307     0.36080
N2303       N  0.74757634  0.57117142  0.41108640    -0.44170
N2304       N  0.82558712  0.67868920  0.58444808    -0.44160
C2305       C  0.76713260  0.71228878  0.81627159    -0.00580
C2306       C  0.75867948  0.70669508  0.85585172    -0.12450
C2307       C  0.77555021  0.72315789  0.88686468     0.01660
C2308       C  0.80111872  0.74632793  0.87877975    -0.00660
C2309       C  0.80848396  0.75310874  0.83911165    -0.12390
C2310       C  0.79202767  0.73620603  0.80811195     0.01540
H2311       H  0.73979241  0.68838999  0.86272455     0.14520
H2312       H  0.82809079  0.77065468  0.83230832     0.14520
C2313       C  0.80162068  0.74328395  0.76803697     0.36180
C2314       C  0.76667355  0.71540522  0.92701040     0.36080
N2315       N  0.80925633  0.74896840  0.73589646    -0.44170
N2316       N  0.75959740  0.70931712  0.95923950    -0.44160
C2317       C  0.95648010  0.62228835  0.18267879    -0.00580
C2318       C  0.98471061  0.64003899  0.19145228    -0.12450
C2319       C  0.50498272  0.65115646  0.16192490     0.01660
C2320       C  0.49767204  0.64415701  0.12223328    -0.00660
C2321       C  0.97012638  0.62475725  0.11313127    -0.12390
C2322       C  0.94946432  0.61385231  0.14305415     0.01540
H2323       H  0.99081533  0.64639314  0.22169263     0.14520
H2324       H  0.96452158  0.61887081  0.08260704     0.14520
C2325       C  0.92112862  0.59532672  0.13219417     0.36180
C2326       C  0.53310685  0.67043447  0.17306011     0.36080
N2327       N  0.89841449  0.58037061  0.12345601    -0.44170
N2328       N  0.55559816  0.68592576  0.18193073    -0.44160
C2329       C  0.77185164  0.78058085  0.04123952    -0.00580
C2330       C  0.75891399  0.75899455  0.06810432    -0.12450
C2331       C  0.73109398  0.73967659  0.06292004     0.01660
C2332       C  0.71600023  0.74182691  0.03031538    -0.00660
C2333       C  0.72775788  0.76496585  0.00633638    -0.12390
C2334       C  0.75517226  0.78462689  0.01199002     0.01540
H2335       H  0.77106088  0.75579439  0.09140207     0.14520
H2336       H  0.71540600  0.76776644  0.98292394     0.14520
C2337       C  0.76530011  0.80831947  0.98684555     0.36180
C2338       C  0.71927877  0.71699585  0.08975908     0.36080
N2339       N  0.77245965  0.82709209  0.96639636    -0.44170
N2340       N  0.70984996  0.69886259  0.11136472    -0.44160
C2341       C  0.99825063  0.72962306  0.96315069    -0.00580
C2342       C  0.50212236  0.74594848  0.92927900    -0.12450
C2343       C  0.49634523  0.76934983  0.93026252     0.01660
C2344       C  0.98940175  0.77832815  0.96646319    -0.00660
C2345       C  0.98766233  0.76273791  0.99991039    -0.12390
C2346       C  0.98809540  0.73726515  0.99757905     0.01540
H2347       H  0.51000453  0.74074973  0.90229169     0.14520
H2348       H  0.98503546  0.77004803  0.02832939     0.14520
C2349       C  0.97792404  0.71983778  0.03162521     0.36180
C2350       C  0.49942639  0.78459075  0.89460104     0.36080
N2351       N  0.96958902  0.70606747  0.05898528    -0.44170
N2352       N  0.50200550  0.79684060  0.86597484    -0.44160
C2353       C  0.59218855  0.80872238  0.21009936    -0.00580
C2354       C  0.61708763  0.81350745  0.18929468    -0.12450
C2355       C  0.61804415  0.79545906  0.16025468     0.01660
C2356       C  0.59340453  0.77177940  0.15054729    -0.00660
C2357       C  0.56829067  0.76684311  0.17122640    -0.12390
C2358       C  0.56754100  0.78498328  0.20099192     0.01540
H2359       H  0.63621408  0.83184105  0.19546779     0.14520
H2360       H  0.54919314  0.74870037  0.16423765     0.14520
C2361       C  0.54165731  0.77830096  0.22245692     0.36180
C2362       C  0.64458867  0.80280220  0.14014089     0.36080
N2363       N  0.52092618  0.77288435  0.23977028    -0.44170
N2364       N  0.66609840  0.80912851  0.12457617    -0.44160
C2365       C  0.59540575  0.63677688  0.84997942    -0.00580
C2366       C  0.61515139  0.65345809  0.82308683    -0.12450
C2367       C  0.63784055  0.64798093  0.81318937     0.01660
C2368       C  0.63599397  0.62101271  0.81703557    -0.00660
C2369       C  0.61234699  0.60163703  0.83697517    -0.12390
C2370       C  0.59324807  0.61005000  0.85599777     0.01540
H2371       H  0.61724266  0.67422226  0.81916086     0.14520
H2372       H  0.61039097  0.58102843  0.84108390     0.14520
C2373       C  0.57343991  0.59215790  0.88423658     0.36180
C2374       C  0.66353525  0.67208077  0.80541249     0.36080
N2375       N  0.55764516  0.57786581  0.90706301    -0.44170
N2376       N  0.68304988  0.69265459  0.80054819    -0.44160
C2377       C  0.84280119  0.98838107  0.53601714    -0.00580
C2378       C  0.86531755  0.51459990  0.53919372    -0.12450
C2379       C  0.87265743  0.53314178  0.50758144     0.01660
C2380       C  0.85745370  0.52553379  0.47174458    -0.00660
C2381       C  0.83542855  0.49903401  0.46846101    -0.12390
C2382       C  0.82806262  0.98058662  0.49996713     0.01540
H2383       H  0.87654151  0.52096863  0.56687294     0.14520
H2384       H  0.82402635  0.99261972  0.44101489     0.14520
C2385       C  0.80545035  0.95350671  0.49442324     0.36180
C2386       C  0.89468720  0.56044529  0.51358237     0.36080
N2387       N  0.78746156  0.93175906  0.48982009    -0.44170
N2388       N  0.91221600  0.58238957  0.51858469    -0.44160
C2389       C  0.73223992  0.52057837  0.70865415    -0.00580
C2390       C  0.74467575  0.51697721  0.67346832    -0.12450
C2391       C  0.76680857  0.00940412  0.67307236     0.01660
C2392       C  0.77452304  0.00039398  0.70810647    -0.00660
C2393       C  0.76135068  0.50269622  0.74359002    -0.12390
C2394       C  0.74117443  0.51354622  0.74431997     0.01540
H2395       H  0.73800018  0.52129825  0.64541970     0.14520
H2396       H  0.76673945  0.49597692  0.77087586     0.14520
C2397       C  0.72986130  0.51678546  0.78192087     0.36180
C2398       C  0.78065983  0.01104414  0.63544852     0.36080
N2399       N  0.72092033  0.51941899  0.81220018    -0.44170
N2400       N  0.79145982  0.01255703  0.60509899    -0.44160
C2401       C  0.77139353  0.78456593  0.64460020    -0.00580
C2402       C  0.76645251  0.77648832  0.68383915    -0.12450
C2403       C  0.74619497  0.75070393  0.69362148     0.01660
C2404       C  0.73173983  0.73158672  0.66326333    -0.00660
C2405       C  0.73874787  0.73898680  0.62368859    -0.12390
C2406       C  0.75825969  0.76542141  0.61417036     0.01540
H2407       H  0.77583042  0.79146284  0.70725203     0.14520
H2408       H  0.72842194  0.72445450  0.60006739     0.14520
C2409       C  0.76353633  0.77290137  0.57319303     0.36180
C2410       C  0.73968615  0.74586290  0.73508200     0.36080
N2411       N  0.76775022  0.77889419  0.54035577    -0.44170
N2412       N  0.73460015  0.74271392  0.76839670    -0.44160
C2413       C  0.88319081  0.86553339  0.86022429    -0.00580
C2414       C  0.85382088  0.85441881  0.85600923    -0.12450
C2415       C  0.84102509  0.86851452  0.83715862     0.01660
C2416       C  0.85731018  0.89245050  0.81618751    -0.00660
C2417       C  0.88691060  0.90313822  0.81778223    -0.12390
C2418       C  0.89995134  0.89045614  0.84126696     0.01540
H2419       H  0.84047771  0.83541617  0.87063351     0.14520
H2420       H  0.89967846  0.92098618  0.80053374     0.14520
C2421       C  0.93005180  0.90342260  0.84609609     0.36180
C2422       C  0.81068584  0.85761831  0.83897745     0.36080
N2423       N  0.95421166  0.91389846  0.85008129    -0.44170
N2424       N  0.78648409  0.84933973  0.84079471    -0.44160
C2425       C  0.68442963  0.76582862  0.85615374    -0.00580
C2426       C  0.67180544  0.77372105  0.82580637    -0.12450
C2427       C  0.68742787  0.79027401  0.79462742     0.01660
C2428       C  0.71730575  0.80057239  0.79294682    -0.00660
C2429       C  0.72987946  0.79092146  0.82192477    -0.12390
C2430       C  0.71378677  0.77379820  0.85323195     0.01540
H2431       H  0.64925290  0.76734352  0.82696715     0.14520
H2432       H  0.75241884  0.79756372  0.82115353     0.14520
C2433       C  0.72808479  0.76604769  0.88315441     0.36180
C2434       C  0.67146270  0.79615531  0.76495883     0.36080
N2435       N  0.73960645  0.75985119  0.90714576    -0.44170
N2436       N  0.65781005  0.80028512  0.74187183    -0.44160
C2437       C  0.71724774  0.90116373  0.53186695    -0.00580
C2438       C  0.70620815  0.92053097  0.53648111    -0.12450
C2439       C  0.68540760  0.92024136  0.51159056     0.01660
C2440       C  0.67532319  0.90028761  0.48148547    -0.00660
C2441       C  0.68591662  0.88068040  0.47684123    -0.12390
C2442       C  0.70701909  0.88107058  0.50154142     0.01540
H2443       H  0.71352166  0.93582335  0.55994948     0.14520
H2444       H  0.67856517  0.86582388  0.45275862     0.14520
C2445       C  0.71862494  0.86163749  0.49359995     0.36180
C2446       C  0.67430012  0.94020513  0.51808504     0.36080
N2447       N  0.72787954  0.84609037  0.48684040    -0.44170
N2448       N  0.66532553  0.95610644  0.52351502    -0.44160
loop_ 
_geom_bond_atom_site_label_1 
_geom_bond_atom_site_label_2 
_geom_bond_distance 
_geom_bond_site_symmetry_2 
_ccdc_geom_bond_type 
Zr1           O2   2.440       .  S
Zr1           O3   2.429       .  S
Zr1           O4   2.412       .  S
Zr1           O7   2.392       .  S
Zr1           O9   2.378       .  S
Zr1          O10   2.373       .  S
Zr1          O11   2.405       .  S
Zr1          O12   2.389       .  S
O2           H58   0.989       .  S
O2           H66   0.989       .  S
O3           C23   1.284       .  A
O4           C25   1.273       .  A
O5          Zr15   2.409       .  S
O5           C24   1.280       .  A
O6          Zr14   2.486       .  S
O6           C25   1.289       .  A
O7           C24   1.280       .  A
O8          Zr16   2.480       .  S
O8           C23   1.292       .  A
O9          Zr14   2.407       .  S
O9          Zr16   2.374       .  S
O10         Zr15   2.365       .  S
O10         Zr16   2.358       .  S
O10          H45   0.966       .  S
O11         Zr14   2.414       .  S
O11         Zr31   2.374       .  S
O11          H48   0.964       .  S
O12         Zr15   2.378       .  S
O12         Zr31   2.383       .  S
Zr13         O38   2.450       .  S
Zr13         O32   2.532       .  S
Zr13         O40   2.426       .  S
Zr13         O28   2.379       .  S
Zr13         O19   2.421       .  S
Zr13         O20   2.437       .  S
Zr13         O21   2.379       .  S
Zr13         O22   2.368       .  S
Zr14         O33   2.434       .  S
Zr14         O26   2.435       .  S
Zr14         O27   2.487       .  S
Zr14         O20   2.401       .  S
Zr14         O21   2.412       .  S
Zr15         O17   2.436       .  S
Zr15         O39   2.436       .  S
Zr15         O41   2.375       .  S
Zr15         O19   2.391       .  S
Zr15         O22   2.409       .  S
Zr16         O42   2.435       .  S
Zr16         O43   2.436       .  S
Zr16         O18   2.437       .  S
Zr16         O19   2.420       .  S
Zr16         O20   2.407       .  S
O17          H54   0.990       .  S
O18          H49   0.990       .  S
O18          H63   0.990       .  S
O20          H46   0.964       .  S
O21         Zr31   2.388       .  S
O22         Zr31   2.371       .  S
O22          H47   0.966       .  S
C23         C541   1.492       .  S
C24         C601   1.464       .  S
C25         C556   1.506       .  S
O26          H62   0.990       .  S
O27          C29   1.294       .  A
O28          C29   1.275       .  A
C29         C580   1.471       .  S
O30         Zr31   2.443       .  S
O30          H59   0.990       .  S
Zr31         O34   2.438       .  S
Zr31         O35   2.440       .  S
Zr31         O36   2.410       .  S
O32          C37   1.300       .  A
O33          H50   0.990       .  S
O33          H65   0.990       .  S
O34          H51   0.990       .  S
O35          H55   0.989       .  S
O35          H64   0.989       .  S
O36          C37   1.279       .  A
C37         C592   1.529       .  S
O38          H57   0.990       .  S
O38          H61   0.989       .  S
O39          H53   0.990       .  S
O39          H60   0.990       .  S
O40          C44   1.277       .  A
O41          C44   1.271       .  A
O42          H52   0.990       .  S
O43          H56   0.990       .  S
C44         C565   1.450       .  S
Zr67         O68   2.434       .  S
Zr67         O69   2.449       .  S
Zr67         O70   2.429       .  S
Zr67         O73   2.409       .  S
Zr67         O75   2.378       .  S
Zr67         O76   2.373       .  S
Zr67         O77   2.407   1_554  S
Zr67         O78   2.403       .  S
O68         H124   0.988       .  S
O68         H132   0.989       .  S
O69          C89   1.288       .  A
O70          C91   1.279   1_554  A
O71         Zr81   2.441       .  S
O71          C90   1.287       .  A
O72         Zr80   2.475       .  S
O72          C91   1.287       .  A
O73          C90   1.281       .  A
O74         Zr82   2.435       .  S
O74          C89   1.283       .  A
O75         Zr80   2.404   1_554  S
O75         Zr82   2.382       .  S
O76         Zr81   2.381       .  S
O76         Zr82   2.366       .  S
O76         H111   0.966       .  S
O77         Zr80   2.419       .  S
O77         Zr97   2.368       .  S
O77         H114   0.963       .  S
O78         Zr81   2.376       .  S
O78         Zr97   2.408   1_554  S
Zr79        O104   2.444       .  S
Zr79         O98   2.493       .  S
Zr79        O106   2.411       .  S
Zr79         O94   2.395       .  S
Zr79         O85   2.415   1_556  S
Zr79         O86   2.418       .  S
Zr79         O87   2.381       .  S
Zr79         O88   2.385       .  S
Zr80         O99   2.435       .  S
Zr80         O92   2.435       .  S
Zr80         O93   2.467       .  S
Zr80         O86   2.411       .  S
Zr80         O87   2.413       .  S
Zr81         O83   2.435       .  S
Zr81        O105   2.437       .  S
Zr81        O107   2.408       .  S
Zr81         O85   2.394       .  S
Zr81         O88   2.396   1_554  S
Zr82        O108   2.436       .  S
Zr82        O109   2.436       .  S
Zr82         O84   2.436       .  S
Zr82         O85   2.402       .  S
Zr82         O86   2.384   1_554  S
O83         H120   0.990       .  S
O84         H115   0.990       .  S
O84         H129   0.990       .  S
O86         H112   0.964       .  S
O87         Zr97   2.382       .  S
O88         Zr97   2.349       .  S
O88         H113   0.964       .  S
C89         C484   1.483   1_455  S
C90         C520   1.485       .  S
C91        C1729   1.499   1_455  S
O92         H128   0.990       .  S
O93          C95   1.290       .  A
O94          C95   1.281       .  A
C95         C529   1.466       .  S
O96         Zr97   2.440       .  S
O96         H125   0.990       .  S
Zr97        O100   2.437       .  S
Zr97        O101   2.442       .  S
Zr97        O102   2.440       .  S
O98         C103   1.294       .  A
O99         H116   0.990       .  S
O99         H131   0.990       .  S
O100        H117   0.990       .  S
O101        H121   0.990       .  S
O101        H130   0.989       .  S
O102        C103   1.285       .  A
C103        C589   1.512       .  S
O104        H123   0.990       .  S
O104        H127   0.990       .  S
O105        H119   0.990       .  S
O105        H126   0.990       .  S
O106        C110   1.280   1_556  A
O107        C110   1.274       .  A
O108        H118   0.990       .  S
O109        H122   0.990       .  S
C110        C496   1.460       .  S
Zr133       O134   2.435       .  S
Zr133       O135   2.437       .  S
Zr133       O136   2.423       .  S
Zr133       O139   2.396       .  S
Zr133       O141   2.377       .  S
Zr133       O142   2.371       .  S
Zr133       O143   2.401       .  S
Zr133       O144   2.399       .  S
O134        H190   0.989       .  S
O134        H198   0.989       .  S
O135        C155   1.285       .  A
O136        C157   1.282       .  A
O137       Zr147   2.415       .  S
O137        C156   1.280       .  A
O138       Zr146   2.486       .  S
O138        C157   1.293       .  A
O139        C156   1.279       .  A
O140       Zr148   2.465       .  S
O140        C155   1.289       .  A
O141       Zr146   2.413       .  S
O141       Zr148   2.379       .  S
O142       Zr147   2.391       .  S
O142       Zr148   2.364       .  S
O142        H177   0.966       .  S
O143       Zr146   2.426       .  S
O143       Zr163   2.378       .  S
O143        H180   0.964       .  S
O144       Zr147   2.387       .  S
O144       Zr163   2.395       .  S
Zr145       O170   2.448       .  S
Zr145       O164   2.485       .  S
Zr145       O172   2.367       .  S
Zr145       O160   2.387       .  S
Zr145       O151   2.408       .  S
Zr145       O152   2.420       .  S
Zr145       O153   2.372       .  S
Zr145       O154   2.384       .  S
Zr146       O165   2.433       .  S
Zr146       O158   2.435       .  S
Zr146       O159   2.506       .  S
Zr146       O152   2.414       .  S
Zr146       O153   2.402       .  S
Zr147       O149   2.437       .  S
Zr147       O171   2.438       .  S
Zr147       O173   2.424       .  S
Zr147       O151   2.372       .  S
Zr147       O154   2.379       .  S
Zr148       O174   2.436       .  S
Zr148       O175   2.439       .  S
Zr148       O150   2.437       .  S
Zr148       O151   2.402       .  S
Zr148       O152   2.409       .  S
O149        H186   0.990       .  S
O150        H181   0.990       .  S
O150        H195   0.990       .  S
O152        H178   0.964       .  S
O153       Zr163   2.379       .  S
O154       Zr163   2.359       .  S
O154        H179   0.966       .  S
C155        C445   1.513       .  S
C156        C460   1.450       .  S
C157        C553   1.508       .  S
O158        H194   0.990       .  S
O159        C161   1.291       .  A
O160        C161   1.262       .  A
C161        C532   1.499       .  S
O162       Zr163   2.439       .  S
O162        H191   0.990       .  S
Zr163       O166   2.436       .  S
Zr163       O167   2.439       .  S
Zr163       O168   2.433       .  S
O164        C169   1.293       .  A
O165        H182   0.990       .  S
O165        H197   0.990       .  S
O166        H183   0.990       .  S
O167        H187   0.990       .  S
O167        H196   0.989       .  S
O168        C169   1.283       .  A
C169        C469   1.501       .  S
O170        H189   0.988       .  S
O170        H193   0.988       .  S
O171        H185   0.990       .  S
O171        H192   0.990       .  S
O172        C176   1.270       .  A
O173        C176   1.277       .  A
O174        H184   0.990       .  S
O175        H188   0.990       .  S
C176        C568   1.468       .  S
Zr199       O200   2.422       .  S
Zr199       O201   2.452       .  S
Zr199       O202   2.427       .  S
Zr199       O205   2.427       .  S
Zr199       O207   2.382       .  S
Zr199       O208   2.377       .  S
Zr199       O209   2.412       .  S
Zr199       O210   2.391       .  S
O200        H256   0.988       .  S
O200        H264   0.988       .  S
O201        C221   1.289       .  A
O202        C223   1.277       .  A
O203       Zr213   2.409       .  S
O203        C222   1.282       .  A
O204       Zr212   2.471       .  S
O204        C223   1.286       .  A
O205        C222   1.285       .  A
O206       Zr214   2.459       .  S
O206        C221   1.288       .  A
O207       Zr212   2.417       .  S
O207       Zr214   2.376       .  S
O208       Zr213   2.387       .  S
O208       Zr214   2.373       .  S
O208        H243   0.966       .  S
O209       Zr212   2.425       .  S
O209       Zr229   2.368       .  S
O209        H246   0.964       .  S
O210       Zr213   2.377       .  S
O210       Zr229   2.377       .  S
Zr211       O236   2.443       .  S
Zr211       O230   2.444       .  S
Zr211       O238   2.396       .  S
Zr211       O226   2.379       .  S
Zr211       O217   2.394       .  S
Zr211       O218   2.404       .  S
Zr211       O219   2.376       .  S
Zr211       O220   2.365       .  S
Zr212       O231   2.436       .  S
Zr212       O224   2.435       .  S
Zr212       O225   2.503       .  S
Zr212       O218   2.402       .  S
Zr212       O219   2.393       .  S
Zr213       O215   2.434       .  S
Zr213       O237   2.436       .  S
Zr213       O239   2.435       .  S
Zr213       O217   2.384       .  S
Zr213       O220   2.377       .  S
Zr214       O240   2.435       .  S
Zr214       O241   2.435       .  S
Zr214       O216   2.436       .  S
Zr214       O217   2.407       .  S
Zr214       O218   2.413       .  S
O215        H252   0.991       .  S
O216        H247   0.990       .  S
O216        H261   0.990       .  S
O218        H244   0.966       .  S
O219       Zr229   2.378       .  S
O220       Zr229   2.374       .  S
O220        H245   0.966       .  S
C221        C544   1.499       .  S
C222        C457   1.474       .  S
C223        C436   1.500       .  S
O224        H260   0.990       .  S
O225        C227   1.297       .  A
O226        C227   1.276       .  A
C227        C481   1.496       .  S
O228       Zr229   2.440       .  S
O228        H257   0.990       .  S
Zr229       O232   2.437       .  S
Zr229       O233   2.439       .  S
Zr229       O234   2.395       .  S
O230        C235   1.286       .  A
O231        H248   0.990       .  S
O231        H263   0.990       .  S
O232        H249   0.990       .  S
O233        H253   0.990       .  S
O233        H262   0.990       .  S
O234        C235   1.277       .  A
C235        C412   1.465       .  S
O236        H255   0.990       .  S
O236        H259   0.990       .  S
O237        H251   0.990       .  S
O237        H258   0.990       .  S
O238        C242   1.279       .  A
O239        C242   1.284       .  A
O240        H250   0.990       .  S
O241        H254   0.990       .  S
C242        C421   1.471       .  S
Zr265       O266   2.436       .  S
Zr265       O267   2.416       .  S
Zr265       O268   2.432       .  S
Zr265       O271   2.392       .  S
Zr265       O273   2.377       .  S
Zr265       O274   2.373       .  S
Zr265       O275   2.395       .  S
Zr265       O276   2.385       .  S
O266        H322   0.989       .  S
O266        H330   0.989       .  S
O267        C287   1.284       .  A
O268        C289   1.283       .  A
O269       Zr279   2.410       .  S
O269        C288   1.280       .  A
O270       Zr278   2.480       .  S
O270        C289   1.290       .  A
O271        C288   1.278       .  A
O272       Zr280   2.486       .  S
O272        C287   1.293       .  A
O273       Zr278   2.407       .  S
O273       Zr280   2.379       .  S
O274       Zr279   2.382       .  S
O274       Zr280   2.360       .  S
O274        H309   0.966       .  S
O275       Zr278   2.419       .  S
O275       Zr295   2.357       .  S
O275        H312   0.964       .  S
O276       Zr279   2.377       .  S
O276       Zr295   2.369       .  S
Zr277       O302   2.443       .  S
Zr277       O296   2.464       .  S
Zr277       O304   2.417       .  S
Zr277       O292   2.390       .  S
Zr277       O283   2.405       .  S
Zr277       O284   2.417       .  S
Zr277       O285   2.379       .  S
Zr277       O286   2.368       .  S
Zr278       O297   2.436       .  S
Zr278       O290   2.435       .  S
Zr278       O291   2.489       .  S
Zr278       O284   2.405       .  S
Zr278       O285   2.399       .  S
Zr279       O281   2.436       .  S
Zr279       O303   2.436       .  S
Zr279       O305   2.414       .  S
Zr279       O283   2.387       .  S
Zr279       O286   2.381       .  S
Zr280       O306   2.435       .  S
Zr280       O307   2.435       .  S
Zr280       O282   2.436       .  S
Zr280       O283   2.417       .  S
Zr280       O284   2.421       .  S
O281        H318   0.990       .  S
O282        H313   0.990       .  S
O282        H327   0.990       .  S
O284        H310   0.966       .  S
O285       Zr295   2.382       .  S
O286       Zr295   2.370       .  S
O286        H311   0.966       .  S
C287        C448   1.516       .  S
C288        C604   1.449       .  S
C289        C433   1.503       .  S
O290        H326   0.990       .  S
O291        C293   1.294       .  A
O292        C293   1.276       .  A
C293        C397   1.480       .  S
O294       Zr295   2.440       .  S
O294        H323   0.990       .  S
Zr295       O298   2.438       .  S
Zr295       O299   2.439       .  S
Zr295       O300   2.376       .  S
O296        C301   1.289       .  A
O297        H314   0.990       .  S
O297        H329   0.990       .  S
O298        H315   0.990       .  S
O299        H319   0.990       .  S
O299        H328   0.990       .  S
O300        C301   1.275       .  A
C301        C517   1.483       .  S
O302        H321   0.990       .  S
O302        H325   0.990       .  S
O303        H317   0.990       .  S
O303        H324   0.990       .  S
O304        C308   1.281       .  A
O305        C308   1.279       .  A
O306        H316   0.990       .  S
O307        H320   0.990       .  S
C308        C424   1.456       .  S
Zr331       O332   2.440       .  S
Zr331       O333   2.446       .  S
Zr331       O334   2.432       .  S
Zr331       O337   2.412       .  S
Zr331       O339   2.380       .  S
Zr331       O340   2.371       .  S
Zr331       O341   2.416   1_554  S
Zr331       O342   2.399       .  S
O332        H388   0.988       .  S
O332        H396   0.989       .  S
O333        C353   1.288       .  A
O334        C355   1.282   1_554  A
O335       Zr345   2.436       .  S
O335        C354   1.285       .  A
O336       Zr344   2.503       .  S
O336        C355   1.295       .  A
O337        C354   1.279       .  A
O338       Zr346   2.441       .  S
O338        C353   1.285       .  A
O339       Zr344   2.408   1_554  S
O339       Zr346   2.383       .  S
O340       Zr345   2.381       .  S
O340       Zr346   2.360       .  S
O340        H375   0.966       .  S
O341       Zr344   2.424       .  S
O341       Zr361   2.367       .  S
O341        H378   0.963       .  S
O342       Zr345   2.374       .  S
O342       Zr361   2.402   1_554  S
Zr343       O368   2.441       .  S
Zr343       O362   2.483       .  S
Zr343       O370   2.409   1_556  S
Zr343       O358   2.357       .  S
Zr343       O349   2.401   1_556  S
Zr343       O350   2.425       .  S
Zr343       O351   2.381       .  S
Zr343       O352   2.365   1_556  S
Zr344       O363   2.437       .  S
Zr344       O356   2.434       .  S
Zr344       O357   2.513       .  S
Zr344       O350   2.405       .  S
Zr344       O351   2.415       .  S
Zr345       O347   2.436       .  S
Zr345       O369   2.436       .  S
Zr345       O371   2.413       .  S
Zr345       O349   2.390       .  S
Zr345       O352   2.393       .  S
Zr346       O372   2.435       .  S
Zr346       O373   2.437       .  S
Zr346       O348   2.436       .  S
Zr346       O349   2.407       .  S
Zr346       O350   2.384   1_554  S
O347        H384   0.990       .  S
O348        H379   0.990       .  S
O348        H393   0.990       .  S
O350        H376   0.965       .  S
O351       Zr361   2.380       .  S
O352       Zr361   2.354   1_554  S
O352        H377   0.965       .  S
C353        C400   1.496       .  S
C354        C409   1.466       .  S
C355        C508   1.509       .  S
O356        H392   0.990       .  S
O357        C359   1.297       .  A
O358        C359   1.269       .  A
C359        C577   1.481       .  S
O360       Zr361   2.439       .  S
O360        H389   0.990       .  S
Zr361       O364   2.438       .  S
Zr361       O365   2.440       .  S
Zr361       O366   2.433       .  S
O362        C367   1.292       .  A
O363        H380   0.990       .  S
O363        H395   0.990       .  S
O364        H381   0.990       .  S
O365        H385   0.990       .  S
O365        H394   0.990   1_556  S
O366        C367   1.282       .  A
C367        C472   1.501       .  S
O368        H387   0.990       .  S
O368        H391   0.990       .  S
O369        H383   0.990       .  S
O369        H390   0.990       .  S
O370        C374   1.281       .  A
O371        C374   1.282       .  A
O372        H382   0.990       .  S
O373        H386   0.990       .  S
C374        C493   1.476       .  S
C397        C398   1.403       .  A
C397        C402   1.410       .  A
C398       C1623   1.406       .  A
C398        H403   1.085       .  S
C399        C400   1.418       .  A
C399       C1622   1.406       .  A
C399        C406   1.444       .  S
C400       C1625   1.408       .  A
C401        C402   1.407       .  A
C401       C1624   1.408       .  A
C401        H404   1.084       .  S
C402        C405   1.444       .  S
C405        N407   1.157       .  T
C406        N408   1.157       .  T
C409        C410   1.404       .  A
C409        C414   1.409       .  A
C410        C411   1.404       .  A
C410        H415   1.084       .  S
C411        C412   1.410       .  A
C411        C418   1.444       .  S
C412        C413   1.401       .  A
C413        C414   1.393       .  A
C413        H416   1.085       .  S
C414        C417   1.446       .  S
C417        N419   1.157       .  T
C418        N420   1.157       .  T
C421        C422   1.405       .  A
C421        C426   1.413       .  A
C422       C1647   1.391       .  A
C422       H1651   1.085       .  S
C423        C424   1.404       .  A
C423       C1646   1.391       .  A
C423        C430   1.446       .  S
C424       C1649   1.400   1_455  A
C425        C426   1.400       .  A
C425       C1648   1.400       .  A
C425        H428   1.085       .  S
C426        C429   1.443       .  S
H427       C1646   1.085       .  S
C429        N431   1.157       .  T
C430        N432   1.157       .  T
C433        C438   1.418       .  A
C433       C1046   1.401       .  A
C434        C435   1.388   1_565  A
C434       C1045   1.401       .  A
C434        H439   1.076       .  S
C435        C436   1.411       .  A
C435        C442   1.446   1_545  S
C436        C437   1.414       .  A
C437       C1050   1.419       .  A
C437       H1052   1.084       .  S
C438       C1049   1.419       .  A
C438        C441   1.441       .  S
H440       C1049   1.084       .  S
C441        N443   1.157       .  T
C442        N444   1.156       .  T
C445        C446   1.413       .  A
C445        C450   1.419       .  A
C446       C1059   1.417       .  A
C446        H451   1.084       .  S
C447        C448   1.420       .  A
C447       C1058   1.417       .  A
C447        C454   1.443       .  S
C448       C1061   1.411       .  A
C449        C450   1.402       .  A
C449       C1060   1.411   1_545  A
C449        H452   1.084       .  S
C450        C453   1.445       .  S
C453        N455   1.157       .  T
C454        N456   1.157       .  T
C457        C458   1.409       .  A
C457        C462   1.416       .  A
C458        C459   1.392       .  A
C458        H463   1.085       .  S
C459        C460   1.402       .  A
C459        C466   1.445       .  S
C460        C461   1.395       .  A
C461        C462   1.392       .  A
C461        H464   1.085       .  S
C462        C465   1.441       .  S
C465        N467   1.157       .  T
C466        N468   1.157       .  T
C469        C470   1.406       .  A
C469        C474   1.417       .  A
C470        C471   1.413       .  A
C470        H475   1.084       .  S
C471        C472   1.416       .  A
C471        C478   1.444       .  S
C472        C473   1.406       .  A
C473        C474   1.413       .  A
C473        H476   1.085       .  S
C474        C477   1.444       .  S
C477        N479   1.157       .  T
C478        N480   1.157       .  T
C481        C482   1.411       .  A
C481        C486   1.413       .  A
C482       C1707   1.396       .  A
C482        H487   1.083       .  S
C483        C484   1.405   1_455  A
C483       C1706   1.396   1_455  A
C483        C490   1.446       .  S
C484       C1709   1.410       .  A
C485        C486   1.416       .  A
C485       C1708   1.410       .  A
C485        H488   1.084       .  S
C486        C489   1.441       .  S
C489        N491   1.157       .  T
C490        N492   1.157       .  T
C493        C494   1.411       .  A
C493        C498   1.413       .  A
C494        C495   1.396       .  A
C494        H499   1.084       .  S
C495        C496   1.405       .  A
C495        C502   1.443       .  S
C496        C497   1.401       .  A
C497        C498   1.388       .  A
C497        H500   1.085   1_554  S
C498        C501   1.445   1_554  S
C501        N503   1.157       .  T
C502        N504   1.157       .  T
C505       C1315   1.499       .  S
C505        C510   1.407       .  A
C505       C1730   1.419       .  A
C506        C507   1.422   1_455  A
C506       C1729   1.419   1_455  A
C506        H511   1.083       .  S
C507       C1732   1.414       .  A
C507        C514   1.442       .  S
C508        C509   1.403       .  A
C508       C1731   1.414       .  A
C509        C510   1.387       .  A
C509        H512   1.066   1_556  S
C510        C513   1.447   1_556  S
C513        N515   1.157       .  T
C514        N516   1.158   1_655  T
C517        C518   1.407       .  A
C517        C522   1.409       .  A
C518        C519   1.390       .  A
C518        H523   1.085       .  S
C519        C520   1.412       .  A
C519        C526   1.445       .  S
C520        C521   1.413       .  A
C521        C522   1.407       .  A
C521        H524   1.085       .  S
C522        C525   1.443       .  S
C525        N527   1.157       .  T
C526        N528   1.157       .  T
C529        C530   1.387       .  A
C529        C534   1.416       .  A
C530        C531   1.387       .  A
C530        H535   1.089       .  S
C531        C532   1.425       .  A
C531        C538   1.442       .  S
C532        C533   1.409       .  A
C533        C534   1.416       .  A
C533        H536   1.084       .  S
C534        C537   1.442       .  S
C537        N539   1.157       .  T
C538        N540   1.156       .  T
C541        C546   1.413       .  A
C541       C1154   1.405       .  A
C542        C543   1.412       .  A
C542       C1153   1.405   1_545  A
C542        H547   1.084       .  S
C543        C544   1.418       .  A
C543        C550   1.443       .  S
C544        C545   1.404   1_545  A
C545       C1158   1.406       .  A
C545       H1160   1.082       .  S
C546       C1157   1.406       .  A
C546        C549   1.445       .  S
H548       C1157   1.082       .  S
C549        N551   1.157       .  T
C550        N552   1.157       .  T
C553        C554   1.406       .  A
C553        C558   1.418       .  A
C554       C1167   1.392       .  A
C554        H559   1.081       .  S
C555        C556   1.420       .  A
C555       C1166   1.392       .  A
C555        C562   1.448       .  S
C556       C1169   1.413       .  A
C557        C558   1.418       .  A
C557       C1168   1.413       .  A
C557        H560   1.084   1_545  S
C558        C561   1.442       .  S
C561        N563   1.157       .  T
C562        N564   1.158       .  T
C565        C566   1.394       .  A
C565        C570   1.406       .  A
C566        C567   1.383       .  A
C566        H571   1.082       .  S
C567        C568   1.418       .  A
C567        C574   1.445       .  S
C568        C569   1.406       .  A
C569        C570   1.393       .  A
C569        H572   1.084       .  S
C570        C573   1.444       .  S
C573        N575   1.157       .  T
C574        N576   1.157       .  T
C577        C578   1.406       .  A
C577        C582   1.413       .  A
C578        C579   1.383       .  A
C578        H583   1.086       .  S
C579        C580   1.405       .  A
C579        C586   1.447       .  S
C580        C581   1.412       .  A
C581        C582   1.419       .  A
C581        H584   1.084       .  S
C582        C585   1.441       .  S
C585        N587   1.157       .  T
C586        N588   1.157       .  T
C589        C590   1.399       .  A
C589        C594   1.418       .  A
C590        C591   1.404       .  A
C590        H595   1.086       .  S
C591        C592   1.427       .  A
C591        C598   1.443       .  S
C592        C593   1.417       .  A
C593        C594   1.428       .  A
C593        H596   1.083       .  S
C594        C597   1.441       .  S
C597        N599   1.157       .  T
C598        N600   1.157       .  T
C601        C602   1.405       .  A
C601        C606   1.413       .  A
C602        C603   1.386       .  A
C602        H607   1.084       .  S
C603        C604   1.403       .  A
C603        C610   1.445       .  S
C604        C605   1.400       .  A
C605        C606   1.393       .  A
C605        H608   1.085       .  S
C606        C609   1.445       .  S
C609        N611   1.157       .  T
C610        N612   1.157       .  T
Zr613       O614   2.440       .  S
Zr613       O615   2.429       .  S
Zr613       O616   2.412       .  S
Zr613       O619   2.392       .  S
Zr613       O621   2.378       .  S
Zr613       O622   2.373       .  S
Zr613       O623   2.405       .  S
Zr613       O624   2.389       .  S
O614        H670   0.989       .  S
O614        H678   0.989       .  S
O615        C635   1.284       .  A
O616        C637   1.273       .  A
O617       Zr627   2.409       .  S
O617        C636   1.280       .  A
O618       Zr626   2.486       .  S
O618        C637   1.289       .  A
O619        C636   1.280       .  A
O620       Zr628   2.480       .  S
O620        C635   1.292       .  A
O621       Zr626   2.407       .  S
O621       Zr628   2.374       .  S
O622       Zr627   2.365       .  S
O622       Zr628   2.358       .  S
O622        H657   0.966       .  S
O623       Zr626   2.414       .  S
O623       Zr643   2.374       .  S
O623        H660   0.964       .  S
O624       Zr627   2.378       .  S
O624       Zr643   2.383       .  S
Zr625       O650   2.450       .  S
Zr625       O644   2.532       .  S
Zr625       O652   2.426       .  S
Zr625       O640   2.379       .  S
Zr625       O631   2.421       .  S
Zr625       O632   2.437       .  S
Zr625       O633   2.379       .  S
Zr625       O634   2.368       .  S
Zr626       O645   2.434       .  S
Zr626       O638   2.435       .  S
Zr626       O639   2.487       .  S
Zr626       O632   2.401       .  S
Zr626       O633   2.412       .  S
Zr627       O629   2.436       .  S
Zr627       O651   2.436       .  S
Zr627       O653   2.375       .  S
Zr627       O631   2.391       .  S
Zr627       O634   2.409       .  S
Zr628       O654   2.435       .  S
Zr628       O655   2.436       .  S
Zr628       O630   2.437       .  S
Zr628       O631   2.420       .  S
Zr628       O632   2.407       .  S
O629        H666   0.990       .  S
O630        H661   0.990       .  S
O630        H675   0.990       .  S
O632        H658   0.964       .  S
O633       Zr643   2.388       .  S
O634       Zr643   2.371       .  S
O634        H659   0.966       .  S
C635       C1153   1.492       .  S
C636       C1213   1.464       .  S
C637       C1168   1.506   1_565  S
O638        H674   0.990       .  S
O639        C641   1.294       .  A
O640        C641   1.275       .  A
C641       C1192   1.471       .  S
O642       Zr643   2.443       .  S
O642        H671   0.990       .  S
Zr643       O646   2.438       .  S
Zr643       O647   2.440       .  S
Zr643       O648   2.410       .  S
O644        C649   1.300       .  A
O645        H662   0.990       .  S
O645        H677   0.990       .  S
O646        H663   0.990       .  S
O647        H667   0.989       .  S
O647        H676   0.989       .  S
O648        C649   1.279       .  A
C649       C1204   1.529       .  S
O650        H669   0.990       .  S
O650        H673   0.989       .  S
O651        H665   0.990       .  S
O651        H672   0.990       .  S
O652        C656   1.277       .  A
O653        C656   1.271       .  A
O654        H664   0.990       .  S
O655        H668   0.990       .  S
C656       C1177   1.450       .  S
Zr679       O680   2.434       .  S
Zr679       O681   2.449       .  S
Zr679       O682   2.429       .  S
Zr679       O685   2.409       .  S
Zr679       O687   2.378       .  S
Zr679       O688   2.373       .  S
Zr679       O689   2.407   1_554  S
Zr679       O690   2.403       .  S
O680        H736   0.988       .  S
O680        H744   0.989       .  S
O681        C701   1.288       .  A
O682        C703   1.279   1_554  A
O683       Zr693   2.441       .  S
O683        C702   1.287       .  A
O684       Zr692   2.475       .  S
O684        C703   1.287       .  A
O685        C702   1.281       .  A
O686       Zr694   2.435       .  S
O686        C701   1.283       .  A
O687       Zr692   2.404   1_554  S
O687       Zr694   2.382       .  S
O688       Zr693   2.381       .  S
O688       Zr694   2.366       .  S
O688        H723   0.966       .  S
O689       Zr692   2.419       .  S
O689       Zr709   2.368       .  S
O689        H726   0.963       .  S
O690       Zr693   2.376       .  S
O690       Zr709   2.408   1_554  S
Zr691       O716   2.444       .  S
Zr691       O710   2.493       .  S
Zr691       O718   2.411       .  S
Zr691       O706   2.395       .  S
Zr691       O697   2.415   1_556  S
Zr691       O698   2.418       .  S
Zr691       O699   2.381       .  S
Zr691       O700   2.385       .  S
Zr692       O711   2.435       .  S
Zr692       O704   2.435       .  S
Zr692       O705   2.467       .  S
Zr692       O698   2.411       .  S
Zr692       O699   2.413       .  S
Zr693       O695   2.435       .  S
Zr693       O717   2.437       .  S
Zr693       O719   2.408       .  S
Zr693       O697   2.394       .  S
Zr693       O700   2.396   1_554  S
Zr694       O720   2.436       .  S
Zr694       O721   2.436       .  S
Zr694       O696   2.436       .  S
Zr694       O697   2.402       .  S
Zr694       O698   2.384   1_554  S
O695        H732   0.990       .  S
O696        H727   0.990       .  S
O696        H741   0.990       .  S
O698        H724   0.964       .  S
O699       Zr709   2.382       .  S
O700       Zr709   2.349       .  S
O700        H725   0.964       .  S
C701       C1096   1.483   1_455  S
C702       C1132   1.485       .  S
C703       C2341   1.499   1_455  S
O704        H740   0.990       .  S
O705        C707   1.290       .  A
O706        C707   1.281       .  A
C707       C1141   1.466       .  S
O708       Zr709   2.440       .  S
O708        H737   0.990       .  S
Zr709       O712   2.437       .  S
Zr709       O713   2.442       .  S
Zr709       O714   2.440       .  S
O710        C715   1.294       .  A
O711        H728   0.990       .  S
O711        H743   0.990       .  S
O712        H729   0.990       .  S
O713        H733   0.990       .  S
O713        H742   0.989       .  S
O714        C715   1.285       .  A
C715       C1201   1.512       .  S
O716        H735   0.990       .  S
O716        H739   0.990       .  S
O717        H731   0.990       .  S
O717        H738   0.990       .  S
O718        C722   1.280   1_556  A
O719        C722   1.274       .  A
O720        H730   0.990       .  S
O721        H734   0.990       .  S
C722       C1108   1.460       .  S
Zr745       O746   2.435       .  S
Zr745       O747   2.437       .  S
Zr745       O748   2.423       .  S
Zr745       O751   2.396       .  S
Zr745       O753   2.377       .  S
Zr745       O754   2.371       .  S
Zr745       O755   2.401       .  S
Zr745       O756   2.399       .  S
O746        H802   0.989       .  S
O746        H810   0.989       .  S
O747        C767   1.285       .  A
O748        C769   1.282       .  A
O749       Zr759   2.415       .  S
O749        C768   1.280       .  A
O750       Zr758   2.486       .  S
O750        C769   1.293       .  A
O751        C768   1.279       .  A
O752       Zr760   2.465       .  S
O752        C767   1.289       .  A
O753       Zr758   2.413       .  S
O753       Zr760   2.379       .  S
O754       Zr759   2.391       .  S
O754       Zr760   2.364       .  S
O754        H789   0.966       .  S
O755       Zr758   2.426       .  S
O755       Zr775   2.378       .  S
O755        H792   0.964       .  S
O756       Zr759   2.387       .  S
O756       Zr775   2.395       .  S
Zr757       O782   2.448       .  S
Zr757       O776   2.485       .  S
Zr757       O784   2.367       .  S
Zr757       O772   2.387       .  S
Zr757       O763   2.408       .  S
Zr757       O764   2.420       .  S
Zr757       O765   2.372       .  S
Zr757       O766   2.384       .  S
Zr758       O777   2.433       .  S
Zr758       O770   2.435       .  S
Zr758       O771   2.506       .  S
Zr758       O764   2.414       .  S
Zr758       O765   2.402       .  S
Zr759       O761   2.437       .  S
Zr759       O783   2.438       .  S
Zr759       O785   2.424       .  S
Zr759       O763   2.372       .  S
Zr759       O766   2.379       .  S
Zr760       O786   2.436       .  S
Zr760       O787   2.439       .  S
Zr760       O762   2.437       .  S
Zr760       O763   2.402       .  S
Zr760       O764   2.409       .  S
O761        H798   0.990       .  S
O762        H793   0.990       .  S
O762        H807   0.990       .  S
O764        H790   0.964       .  S
O765       Zr775   2.379       .  S
O766       Zr775   2.359       .  S
O766        H791   0.966       .  S
C767       C1057   1.513       .  S
C768       C1072   1.450       .  S
C769       C1165   1.508       .  S
O770        H806   0.990       .  S
O771        C773   1.291       .  A
O772        C773   1.262       .  A
C773       C1144   1.499       .  S
O774       Zr775   2.439       .  S
O774        H803   0.990       .  S
Zr775       O778   2.436       .  S
Zr775       O779   2.439       .  S
Zr775       O780   2.433       .  S
O776        C781   1.293       .  A
O777        H794   0.990       .  S
O777        H809   0.990       .  S
O778        H795   0.990       .  S
O779        H799   0.990       .  S
O779        H808   0.989       .  S
O780        C781   1.283       .  A
C781       C1081   1.501       .  S
O782        H801   0.988       .  S
O782        H805   0.988       .  S
O783        H797   0.990       .  S
O783        H804   0.990       .  S
O784        C788   1.270       .  A
O785        C788   1.277       .  A
O786        H796   0.990       .  S
O787        H800   0.990       .  S
C788       C1180   1.468       .  S
Zr811       O812   2.422       .  S
Zr811       O813   2.452       .  S
Zr811       O814   2.427       .  S
Zr811       O817   2.427       .  S
Zr811       O819   2.382       .  S
Zr811       O820   2.377       .  S
Zr811       O821   2.412       .  S
Zr811       O822   2.391       .  S
O812        H868   0.988       .  S
O812        H876   0.988       .  S
O813        C833   1.289       .  A
O814        C835   1.277       .  A
O815       Zr825   2.409       .  S
O815        C834   1.282       .  A
O816       Zr824   2.471       .  S
O816        C835   1.286       .  A
O817        C834   1.285       .  A
O818       Zr826   2.459       .  S
O818        C833   1.288       .  A
O819       Zr824   2.417       .  S
O819       Zr826   2.376       .  S
O820       Zr825   2.387       .  S
O820       Zr826   2.373       .  S
O820        H855   0.966       .  S
O821       Zr824   2.425       .  S
O821       Zr841   2.368       .  S
O821        H858   0.964       .  S
O822       Zr825   2.377       .  S
O822       Zr841   2.377       .  S
Zr823       O848   2.443       .  S
Zr823       O842   2.444       .  S
Zr823       O850   2.396       .  S
Zr823       O838   2.379       .  S
Zr823       O829   2.394       .  S
Zr823       O830   2.404       .  S
Zr823       O831   2.376       .  S
Zr823       O832   2.365       .  S
Zr824       O843   2.436       .  S
Zr824       O836   2.435       .  S
Zr824       O837   2.503       .  S
Zr824       O830   2.402       .  S
Zr824       O831   2.393       .  S
Zr825       O827   2.434       .  S
Zr825       O849   2.436       .  S
Zr825       O851   2.435       .  S
Zr825       O829   2.384       .  S
Zr825       O832   2.377       .  S
Zr826       O852   2.435       .  S
Zr826       O853   2.435       .  S
Zr826       O828   2.436       .  S
Zr826       O829   2.407       .  S
Zr826       O830   2.413       .  S
O827        H864   0.991       .  S
O828        H859   0.990       .  S
O828        H873   0.990       .  S
O830        H856   0.966       .  S
O831       Zr841   2.378       .  S
O832       Zr841   2.374       .  S
O832        H857   0.966       .  S
C833       C1156   1.499       .  S
C834       C1069   1.474       .  S
C835       C1048   1.500       .  S
O836        H872   0.990       .  S
O837        C839   1.297       .  A
O838        C839   1.276       .  A
C839       C1093   1.496       .  S
O840       Zr841   2.440       .  S
O840        H869   0.990       .  S
Zr841       O844   2.437       .  S
Zr841       O845   2.439       .  S
Zr841       O846   2.395       .  S
O842        C847   1.286       .  A
O843        H860   0.990       .  S
O843        H875   0.990       .  S
O844        H861   0.990       .  S
O845        H865   0.990       .  S
O845        H874   0.990       .  S
O846        C847   1.277       .  A
C847       C1024   1.465       .  S
O848        H867   0.990       .  S
O848        H871   0.990       .  S
O849        H863   0.990       .  S
O849        H870   0.990       .  S
O850        C854   1.279       .  A
O851        C854   1.284       .  A
O852        H862   0.990       .  S
O853        H866   0.990       .  S
C854       C1033   1.471       .  S
Zr877       O878   2.436       .  S
Zr877       O879   2.416       .  S
Zr877       O880   2.432       .  S
Zr877       O883   2.392       .  S
Zr877       O885   2.377       .  S
Zr877       O886   2.373       .  S
Zr877       O887   2.395       .  S
Zr877       O888   2.385       .  S
O878        H934   0.989       .  S
O878        H942   0.989       .  S
O879        C899   1.284       .  A
O880        C901   1.283       .  A
O881       Zr891   2.410       .  S
O881        C900   1.280       .  A
O882       Zr890   2.480       .  S
O882        C901   1.290       .  A
O883        C900   1.278       .  A
O884       Zr892   2.486       .  S
O884        C899   1.293       .  A
O885       Zr890   2.407       .  S
O885       Zr892   2.379       .  S
O886       Zr891   2.382       .  S
O886       Zr892   2.360       .  S
O886        H921   0.966       .  S
O887       Zr890   2.419       .  S
O887       Zr907   2.357       .  S
O887        H924   0.964       .  S
O888       Zr891   2.377       .  S
O888       Zr907   2.369       .  S
Zr889       O914   2.443       .  S
Zr889       O908   2.464       .  S
Zr889       O916   2.417       .  S
Zr889       O904   2.390       .  S
Zr889       O895   2.405       .  S
Zr889       O896   2.417       .  S
Zr889       O897   2.379       .  S
Zr889       O898   2.368       .  S
Zr890       O909   2.436       .  S
Zr890       O902   2.435       .  S
Zr890       O903   2.489       .  S
Zr890       O896   2.405       .  S
Zr890       O897   2.399       .  S
Zr891       O893   2.436       .  S
Zr891       O915   2.436       .  S
Zr891       O917   2.414       .  S
Zr891       O895   2.387       .  S
Zr891       O898   2.381       .  S
Zr892       O918   2.435       .  S
Zr892       O919   2.435       .  S
Zr892       O894   2.436       .  S
Zr892       O895   2.417       .  S
Zr892       O896   2.421       .  S
O893        H930   0.990       .  S
O894        H925   0.990       .  S
O894        H939   0.990       .  S
O896        H922   0.966       .  S
O897       Zr907   2.382       .  S
O898       Zr907   2.370       .  S
O898        H923   0.966       .  S
C899       C1060   1.516       .  S
C900       C1216   1.449       .  S
C901       C1045   1.503       .  S
O902        H938   0.990       .  S
O903        C905   1.294       .  A
O904        C905   1.276       .  A
C905       C1009   1.480       .  S
O906       Zr907   2.440       .  S
O906        H935   0.990       .  S
Zr907       O910   2.438       .  S
Zr907       O911   2.439       .  S
Zr907       O912   2.376       .  S
O908        C913   1.289       .  A
O909        H926   0.990       .  S
O909        H941   0.990       .  S
O910        H927   0.990       .  S
O911        H931   0.990       .  S
O911        H940   0.990       .  S
O912        C913   1.275       .  A
C913       C1129   1.483       .  S
O914        H933   0.990       .  S
O914        H937   0.990       .  S
O915        H929   0.990       .  S
O915        H936   0.990       .  S
O916        C920   1.281       .  A
O917        C920   1.279       .  A
O918        H928   0.990       .  S
O919        H932   0.990       .  S
C920       C1036   1.456       .  S
Zr943       O944   2.440       .  S
Zr943       O945   2.446       .  S
Zr943       O946   2.432       .  S
Zr943       O949   2.412       .  S
Zr943       O951   2.380       .  S
Zr943       O952   2.371       .  S
Zr943       O953   2.416   1_554  S
Zr943       O954   2.399       .  S
O944       H1000   0.988       .  S
O944       H1008   0.989       .  S
O945        C965   1.288       .  A
O946        C967   1.282   1_554  A
O947       Zr957   2.436       .  S
O947        C966   1.285       .  A
O948       Zr956   2.503       .  S
O948        C967   1.295       .  A
O949        C966   1.279       .  A
O950       Zr958   2.441       .  S
O950        C965   1.285       .  A
O951       Zr956   2.408   1_554  S
O951       Zr958   2.383       .  S
O952       Zr957   2.381       .  S
O952       Zr958   2.360       .  S
O952        H987   0.966       .  S
O953       Zr956   2.424       .  S
O953       Zr973   2.367       .  S
O953        H990   0.963       .  S
O954       Zr957   2.374       .  S
O954       Zr973   2.402   1_554  S
Zr955       O980   2.441       .  S
Zr955       O974   2.483       .  S
Zr955       O982   2.409   1_556  S
Zr955       O970   2.357       .  S
Zr955       O961   2.401   1_556  S
Zr955       O962   2.425       .  S
Zr955       O963   2.381       .  S
Zr955       O964   2.365   1_556  S
Zr956       O975   2.437       .  S
Zr956       O968   2.434       .  S
Zr956       O969   2.513       .  S
Zr956       O962   2.405       .  S
Zr956       O963   2.415       .  S
Zr957       O959   2.436       .  S
Zr957       O981   2.436       .  S
Zr957       O983   2.413       .  S
Zr957       O961   2.390       .  S
Zr957       O964   2.393       .  S
Zr958       O984   2.435       .  S
Zr958       O985   2.437       .  S
Zr958       O960   2.436       .  S
Zr958       O961   2.407       .  S
Zr958       O962   2.384   1_554  S
O959        H996   0.990       .  S
O960        H991   0.990       .  S
O960       H1005   0.990       .  S
O962        H988   0.965       .  S
O963       Zr973   2.380       .  S
O964       Zr973   2.354   1_554  S
O964        H989   0.965       .  S
C965       C1012   1.496       .  S
C966       C1021   1.466       .  S
C967       C1120   1.509       .  S
O968       H1004   0.990       .  S
O969        C971   1.297       .  A
O970        C971   1.269       .  A
C971       C1189   1.481       .  S
O972       Zr973   2.439       .  S
O972       H1001   0.990       .  S
Zr973       O976   2.438       .  S
Zr973       O977   2.440       .  S
Zr973       O978   2.433       .  S
O974        C979   1.292       .  A
O975        H992   0.990       .  S
O975       H1007   0.990       .  S
O976        H993   0.990       .  S
O977        H997   0.990       .  S
O977       H1006   0.990   1_556  S
O978        C979   1.282       .  A
C979       C1084   1.501       .  S
O980        H999   0.990       .  S
O980       H1003   0.990       .  S
O981        H995   0.990       .  S
O981       H1002   0.990       .  S
O982        C986   1.281       .  A
O983        C986   1.282       .  A
O984        H994   0.990       .  S
O985        H998   0.990       .  S
C986       C1105   1.476       .  S
C1009      C1010   1.403       .  A
C1009      C1014   1.410       .  A
C1010      C2235   1.406       .  A
C1010      H1015   1.085       .  S
C1011      C2234   1.406       .  A
C1011      C1012   1.418       .  A
C1011      C1018   1.444       .  S
C1012      C2237   1.408       .  A
C1013      C2236   1.408       .  A
C1013      C1014   1.407       .  A
C1013      H1016   1.084       .  S
C1014      C1017   1.444       .  S
C1017      N1019   1.157       .  T
C1018      N1020   1.157       .  T
C1021      C1022   1.404       .  A
C1021      C1026   1.409       .  A
C1022      C1023   1.404       .  A
C1022      H1027   1.084       .  S
C1023      C1024   1.410       .  A
C1023      C1030   1.444       .  S
C1024      C1025   1.401       .  A
C1025      C1026   1.393       .  A
C1025      H1028   1.085       .  S
C1026      C1029   1.446       .  S
C1029      N1031   1.157       .  T
C1030      N1032   1.157       .  T
C1033      C1034   1.405       .  A
C1033      C1038   1.413       .  A
C1034      C2259   1.391       .  A
C1034      H2263   1.085       .  S
C1035      C2258   1.391       .  A
C1035      C1036   1.404       .  A
C1035      C1042   1.446       .  S
C1036      C2261   1.400   1_455  A
C1037      C2260   1.400       .  A
C1037      C1038   1.400       .  A
C1037      H1040   1.085       .  S
C1038      C1041   1.443       .  S
H1039      C2258   1.085       .  S
C1041      N1043   1.157       .  T
C1042      N1044   1.157       .  T
C1045      C1050   1.418   1_565  A
C1046      C1047   1.388       .  A
C1046      H1051   1.076       .  S
C1047      C1048   1.411       .  A
C1047      C1054   1.446       .  S
C1048      C1049   1.414       .  A
C1050      C1053   1.441       .  S
C1053      N1055   1.157       .  T
C1054      N1056   1.156       .  T
C1057      C1058   1.413       .  A
C1057      C1062   1.419       .  A
C1058      H1063   1.084       .  S
C1059      C1060   1.420   1_545  A
C1059      C1066   1.443   1_545  S
C1061      C1062   1.402       .  A
C1061      H1064   1.084       .  S
C1062      C1065   1.445       .  S
C1065      N1067   1.157       .  T
C1066      N1068   1.157       .  T
C1069      C1070   1.409       .  A
C1069      C1074   1.416       .  A
C1070      C1071   1.392       .  A
C1070      H1075   1.085       .  S
C1071      C1072   1.402       .  A
C1071      C1078   1.445       .  S
C1072      C1073   1.395       .  A
C1073      C1074   1.392       .  A
C1073      H1076   1.085       .  S
C1074      C1077   1.441       .  S
C1077      N1079   1.157       .  T
C1078      N1080   1.157       .  T
C1081      C1082   1.406       .  A
C1081      C1086   1.417       .  A
C1082      C1083   1.413       .  A
C1082      H1087   1.084       .  S
C1083      C1084   1.416       .  A
C1083      C1090   1.444       .  S
C1084      C1085   1.406       .  A
C1085      C1086   1.413       .  A
C1085      H1088   1.085       .  S
C1086      C1089   1.444       .  S
C1089      N1091   1.157       .  T
C1090      N1092   1.157       .  T
C1093      C1094   1.411       .  A
C1093      C1098   1.413       .  A
C1094      C2319   1.396       .  A
C1094      H1099   1.083       .  S
C1095      C2318   1.396   1_455  A
C1095      C1096   1.405   1_455  A
C1095      C1102   1.446       .  S
C1096      C2321   1.410       .  A
C1097      C2320   1.410       .  A
C1097      C1098   1.416       .  A
C1097      H1100   1.084       .  S
C1098      C1101   1.441       .  S
C1101      N1103   1.157       .  T
C1102      N1104   1.157       .  T
C1105      C1106   1.411       .  A
C1105      C1110   1.413       .  A
C1106      C1107   1.396       .  A
C1106      H1111   1.084       .  S
C1107      C1108   1.405       .  A
C1107      C1114   1.443       .  S
C1108      C1109   1.401       .  A
C1109      C1110   1.388       .  A
C1109      H1112   1.085   1_554  S
C1110      C1113   1.445   1_554  S
C1113      N1115   1.157       .  T
C1114      N1116   1.157       .  T
C1117      C1927   1.499       .  S
C1117      C2342   1.419       .  A
C1117      C1122   1.407       .  A
C1118      C2341   1.419   1_455  A
C1118      C1119   1.422   1_455  A
C1118      H1123   1.083       .  S
C1119      C2344   1.414       .  A
C1119      C1126   1.442       .  S
C1120      C2343   1.414       .  A
C1120      C1121   1.403       .  A
C1121      C1122   1.387       .  A
C1121      H1124   1.066   1_556  S
C1122      C1125   1.447   1_556  S
C1125      N1127   1.157       .  T
C1126      N1128   1.158   1_655  T
C1129      C1130   1.407       .  A
C1129      C1134   1.409       .  A
C1130      C1131   1.390       .  A
C1130      H1135   1.085       .  S
C1131      C1132   1.412       .  A
C1131      C1138   1.445       .  S
C1132      C1133   1.413       .  A
C1133      C1134   1.407       .  A
C1133      H1136   1.085       .  S
C1134      C1137   1.443       .  S
C1137      N1139   1.157       .  T
C1138      N1140   1.157       .  T
C1141      C1142   1.387       .  A
C1141      C1146   1.416       .  A
C1142      C1143   1.387       .  A
C1142      H1147   1.089       .  S
C1143      C1144   1.425       .  A
C1143      C1150   1.442       .  S
C1144      C1145   1.409       .  A
C1145      C1146   1.416       .  A
C1145      H1148   1.084       .  S
C1146      C1149   1.442       .  S
C1149      N1151   1.157       .  T
C1150      N1152   1.156       .  T
C1153      C1158   1.413       .  A
C1154      C1155   1.412       .  A
C1154      H1159   1.084       .  S
C1155      C1156   1.418       .  A
C1155      C1162   1.443       .  S
C1156      C1157   1.404       .  A
C1158      C1161   1.445       .  S
C1161      N1163   1.157       .  T
C1162      N1164   1.157       .  T
C1165      C1166   1.406       .  A
C1165      C1170   1.418       .  A
C1166      H1171   1.081       .  S
C1167      C1168   1.420       .  A
C1167      C1174   1.448       .  S
C1169      C1170   1.418       .  A
C1169      H1172   1.084       .  S
C1170      C1173   1.442       .  S
C1173      N1175   1.157       .  T
C1174      N1176   1.158       .  T
C1177      C1178   1.394       .  A
C1177      C1182   1.406       .  A
C1178      C1179   1.383       .  A
C1178      H1183   1.082       .  S
C1179      C1180   1.418       .  A
C1179      C1186   1.445       .  S
C1180      C1181   1.406       .  A
C1181      C1182   1.393       .  A
C1181      H1184   1.084       .  S
C1182      C1185   1.444       .  S
C1185      N1187   1.157       .  T
C1186      N1188   1.157       .  T
C1189      C1190   1.406       .  A
C1189      C1194   1.413       .  A
C1190      C1191   1.383       .  A
C1190      H1195   1.086       .  S
C1191      C1192   1.405       .  A
C1191      C1198   1.447       .  S
C1192      C1193   1.412       .  A
C1193      C1194   1.419       .  A
C1193      H1196   1.084       .  S
C1194      C1197   1.441       .  S
C1197      N1199   1.157       .  T
C1198      N1200   1.157       .  T
C1201      C1202   1.399       .  A
C1201      C1206   1.418       .  A
C1202      C1203   1.404       .  A
C1202      H1207   1.086       .  S
C1203      C1204   1.427       .  A
C1203      C1210   1.443       .  S
C1204      C1205   1.417       .  A
C1205      C1206   1.428       .  A
C1205      H1208   1.083       .  S
C1206      C1209   1.441       .  S
C1209      N1211   1.157       .  T
C1210      N1212   1.157       .  T
C1213      C1214   1.405       .  A
C1213      C1218   1.413       .  A
C1214      C1215   1.386       .  A
C1214      H1219   1.084       .  S
C1215      C1216   1.403       .  A
C1215      C1222   1.445       .  S
C1216      C1217   1.400       .  A
C1217      C1218   1.393       .  A
C1217      H1220   1.085       .  S
C1218      C1221   1.445       .  S
C1221      N1223   1.157       .  T
C1222      N1224   1.157       .  T
Zr1225     O1226   2.440       .  S
Zr1225     O1227   2.429       .  S
Zr1225     O1228   2.412       .  S
Zr1225     O1231   2.392       .  S
Zr1225     O1233   2.378       .  S
Zr1225     O1234   2.373       .  S
Zr1225     O1235   2.405       .  S
Zr1225     O1236   2.389       .  S
O1226      H1282   0.989       .  S
O1226      H1290   0.989       .  S
O1227      C1247   1.284       .  A
O1228      C1249   1.273       .  A
O1229     Zr1239   2.409       .  S
O1229      C1248   1.280       .  A
O1230     Zr1238   2.486       .  S
O1230      C1249   1.289       .  A
O1231      C1248   1.280       .  A
O1232     Zr1240   2.480       .  S
O1232      C1247   1.292       .  A
O1233     Zr1238   2.407       .  S
O1233     Zr1240   2.374       .  S
O1234     Zr1239   2.365       .  S
O1234     Zr1240   2.358       .  S
O1234      H1269   0.966       .  S
O1235     Zr1238   2.414       .  S
O1235     Zr1255   2.374       .  S
O1235      H1272   0.964       .  S
O1236     Zr1239   2.378       .  S
O1236     Zr1255   2.383       .  S
Zr1237     O1262   2.450       .  S
Zr1237     O1256   2.532       .  S
Zr1237     O1264   2.426       .  S
Zr1237     O1252   2.379       .  S
Zr1237     O1243   2.421       .  S
Zr1237     O1244   2.437       .  S
Zr1237     O1245   2.379       .  S
Zr1237     O1246   2.368       .  S
Zr1238     O1257   2.434       .  S
Zr1238     O1250   2.435       .  S
Zr1238     O1251   2.487       .  S
Zr1238     O1244   2.401       .  S
Zr1238     O1245   2.412       .  S
Zr1239     O1241   2.436       .  S
Zr1239     O1263   2.436       .  S
Zr1239     O1265   2.375       .  S
Zr1239     O1243   2.391       .  S
Zr1239     O1246   2.409       .  S
Zr1240     O1266   2.435       .  S
Zr1240     O1267   2.436       .  S
Zr1240     O1242   2.437       .  S
Zr1240     O1243   2.420       .  S
Zr1240     O1244   2.407       .  S
O1241      H1278   0.990       .  S
O1242      H1273   0.990       .  S
O1242      H1287   0.990       .  S
O1244      H1270   0.964       .  S
O1245     Zr1255   2.388       .  S
O1246     Zr1255   2.371       .  S
O1246      H1271   0.966       .  S
C1247      C1765   1.492       .  S
C1248      C1825   1.464       .  S
C1249      C1780   1.506       .  S
O1250      H1286   0.990       .  S
O1251      C1253   1.294       .  A
O1252      C1253   1.275       .  A
C1253      C1804   1.471       .  S
O1254     Zr1255   2.443       .  S
O1254      H1283   0.990       .  S
Zr1255     O1258   2.438       .  S
Zr1255     O1259   2.440       .  S
Zr1255     O1260   2.410       .  S
O1256      C1261   1.300       .  A
O1257      H1274   0.990       .  S
O1257      H1289   0.990       .  S
O1258      H1275   0.990       .  S
O1259      H1279   0.989       .  S
O1259      H1288   0.989       .  S
O1260      C1261   1.279       .  A
C1261      C1816   1.529       .  S
O1262      H1281   0.990       .  S
O1262      H1285   0.989       .  S
O1263      H1277   0.990       .  S
O1263      H1284   0.990       .  S
O1264      C1268   1.277       .  A
O1265      C1268   1.271       .  A
O1266      H1276   0.990       .  S
O1267      H1280   0.990       .  S
C1268      C1789   1.450       .  S
Zr1291     O1292   2.434       .  S
Zr1291     O1293   2.449       .  S
Zr1291     O1294   2.429       .  S
Zr1291     O1297   2.409       .  S
Zr1291     O1299   2.378       .  S
Zr1291     O1300   2.373       .  S
Zr1291     O1301   2.407   1_554  S
Zr1291     O1302   2.403       .  S
O1292      H1348   0.988       .  S
O1292      H1356   0.989       .  S
O1293      C1313   1.288       .  A
O1294      C1315   1.279   1_554  A
O1295     Zr1305   2.441       .  S
O1295      C1314   1.287       .  A
O1296     Zr1304   2.475       .  S
O1296      C1315   1.287       .  A
O1297      C1314   1.281       .  A
O1298     Zr1306   2.435       .  S
O1298      C1313   1.283       .  A
O1299     Zr1304   2.404   1_554  S
O1299     Zr1306   2.382       .  S
O1300     Zr1305   2.381       .  S
O1300     Zr1306   2.366       .  S
O1300      H1335   0.966       .  S
O1301     Zr1304   2.419       .  S
O1301     Zr1321   2.368       .  S
O1301      H1338   0.963       .  S
O1302     Zr1305   2.376       .  S
O1302     Zr1321   2.408   1_554  S
Zr1303     O1328   2.444       .  S
Zr1303     O1322   2.493       .  S
Zr1303     O1330   2.411       .  S
Zr1303     O1318   2.395       .  S
Zr1303     O1309   2.415   1_556  S
Zr1303     O1310   2.418       .  S
Zr1303     O1311   2.381       .  S
Zr1303     O1312   2.385       .  S
Zr1304     O1323   2.435       .  S
Zr1304     O1316   2.435       .  S
Zr1304     O1317   2.467       .  S
Zr1304     O1310   2.411       .  S
Zr1304     O1311   2.413       .  S
Zr1305     O1307   2.435       .  S
Zr1305     O1329   2.437       .  S
Zr1305     O1331   2.408       .  S
Zr1305     O1309   2.394       .  S
Zr1305     O1312   2.396   1_554  S
Zr1306     O1332   2.436       .  S
Zr1306     O1333   2.436       .  S
Zr1306     O1308   2.436       .  S
Zr1306     O1309   2.402       .  S
Zr1306     O1310   2.384   1_554  S
O1307      H1344   0.990       .  S
O1308      H1339   0.990       .  S
O1308      H1353   0.990       .  S
O1310      H1336   0.964       .  S
O1311     Zr1321   2.382       .  S
O1312     Zr1321   2.349       .  S
O1312      H1337   0.964       .  S
C1313      C1708   1.483       .  S
C1314      C1744   1.485       .  S
O1316      H1352   0.990       .  S
O1317      C1319   1.290       .  A
O1318      C1319   1.281       .  A
C1319      C1753   1.466       .  S
O1320     Zr1321   2.440       .  S
O1320      H1349   0.990       .  S
Zr1321     O1324   2.437       .  S
Zr1321     O1325   2.442       .  S
Zr1321     O1326   2.440       .  S
O1322      C1327   1.294       .  A
O1323      H1340   0.990       .  S
O1323      H1355   0.990       .  S
O1324      H1341   0.990       .  S
O1325      H1345   0.990       .  S
O1325      H1354   0.989       .  S
O1326      C1327   1.285       .  A
C1327      C1813   1.512       .  S
O1328      H1347   0.990       .  S
O1328      H1351   0.990       .  S
O1329      H1343   0.990       .  S
O1329      H1350   0.990       .  S
O1330      C1334   1.280   1_556  A
O1331      C1334   1.274       .  A
O1332      H1342   0.990       .  S
O1333      H1346   0.990       .  S
C1334      C1720   1.460       .  S
Zr1357     O1358   2.435       .  S
Zr1357     O1359   2.437       .  S
Zr1357     O1360   2.423       .  S
Zr1357     O1363   2.396       .  S
Zr1357     O1365   2.377       .  S
Zr1357     O1366   2.371       .  S
Zr1357     O1367   2.401       .  S
Zr1357     O1368   2.399       .  S
O1358      H1414   0.989       .  S
O1358      H1422   0.989       .  S
O1359      C1379   1.285       .  A
O1360      C1381   1.282       .  A
O1361     Zr1371   2.415       .  S
O1361      C1380   1.280       .  A
O1362     Zr1370   2.486       .  S
O1362      C1381   1.293       .  A
O1363      C1380   1.279       .  A
O1364     Zr1372   2.465       .  S
O1364      C1379   1.289       .  A
O1365     Zr1370   2.413       .  S
O1365     Zr1372   2.379       .  S
O1366     Zr1371   2.391       .  S
O1366     Zr1372   2.364       .  S
O1366      H1401   0.966       .  S
O1367     Zr1370   2.426       .  S
O1367     Zr1387   2.378       .  S
O1367      H1404   0.964       .  S
O1368     Zr1371   2.387       .  S
O1368     Zr1387   2.395       .  S
Zr1369     O1394   2.448       .  S
Zr1369     O1388   2.485       .  S
Zr1369     O1396   2.367       .  S
Zr1369     O1384   2.387       .  S
Zr1369     O1375   2.408       .  S
Zr1369     O1376   2.420       .  S
Zr1369     O1377   2.372       .  S
Zr1369     O1378   2.384       .  S
Zr1370     O1389   2.433       .  S
Zr1370     O1382   2.435       .  S
Zr1370     O1383   2.506       .  S
Zr1370     O1376   2.414       .  S
Zr1370     O1377   2.402       .  S
Zr1371     O1373   2.437       .  S
Zr1371     O1395   2.438       .  S
Zr1371     O1397   2.424       .  S
Zr1371     O1375   2.372       .  S
Zr1371     O1378   2.379       .  S
Zr1372     O1398   2.436       .  S
Zr1372     O1399   2.439       .  S
Zr1372     O1374   2.437       .  S
Zr1372     O1375   2.402       .  S
Zr1372     O1376   2.409       .  S
O1373      H1410   0.990       .  S
O1374      H1405   0.990       .  S
O1374      H1419   0.990       .  S
O1376      H1402   0.964       .  S
O1377     Zr1387   2.379       .  S
O1378     Zr1387   2.359       .  S
O1378      H1403   0.966       .  S
C1379      C1669   1.513       .  S
C1380      C1684   1.450       .  S
C1381      C1777   1.508       .  S
O1382      H1418   0.990       .  S
O1383      C1385   1.291       .  A
O1384      C1385   1.262       .  A
C1385      C1756   1.499       .  S
O1386     Zr1387   2.439       .  S
O1386      H1415   0.990       .  S
Zr1387     O1390   2.436       .  S
Zr1387     O1391   2.439       .  S
Zr1387     O1392   2.433       .  S
O1388      C1393   1.293       .  A
O1389      H1406   0.990       .  S
O1389      H1421   0.990       .  S
O1390      H1407   0.990       .  S
O1391      H1411   0.990       .  S
O1391      H1420   0.989       .  S
O1392      C1393   1.283       .  A
C1393      C1693   1.501       .  S
O1394      H1413   0.988       .  S
O1394      H1417   0.988       .  S
O1395      H1409   0.990       .  S
O1395      H1416   0.990       .  S
O1396      C1400   1.270       .  A
O1397      C1400   1.277       .  A
O1398      H1408   0.990       .  S
O1399      H1412   0.990       .  S
C1400      C1792   1.468       .  S
Zr1423     O1424   2.422       .  S
Zr1423     O1425   2.452       .  S
Zr1423     O1426   2.427       .  S
Zr1423     O1429   2.427       .  S
Zr1423     O1431   2.382       .  S
Zr1423     O1432   2.377       .  S
Zr1423     O1433   2.412       .  S
Zr1423     O1434   2.391       .  S
O1424      H1480   0.988       .  S
O1424      H1488   0.988       .  S
O1425      C1445   1.289       .  A
O1426      C1447   1.277       .  A
O1427     Zr1437   2.409       .  S
O1427      C1446   1.282       .  A
O1428     Zr1436   2.471       .  S
O1428      C1447   1.286       .  A
O1429      C1446   1.285       .  A
O1430     Zr1438   2.459       .  S
O1430      C1445   1.288       .  A
O1431     Zr1436   2.417       .  S
O1431     Zr1438   2.376       .  S
O1432     Zr1437   2.387       .  S
O1432     Zr1438   2.373       .  S
O1432      H1467   0.966       .  S
O1433     Zr1436   2.425       .  S
O1433     Zr1453   2.368       .  S
O1433      H1470   0.964       .  S
O1434     Zr1437   2.377       .  S
O1434     Zr1453   2.377       .  S
Zr1435     O1460   2.443       .  S
Zr1435     O1454   2.444       .  S
Zr1435     O1462   2.396       .  S
Zr1435     O1450   2.379       .  S
Zr1435     O1441   2.394       .  S
Zr1435     O1442   2.404       .  S
Zr1435     O1443   2.376       .  S
Zr1435     O1444   2.365       .  S
Zr1436     O1455   2.436       .  S
Zr1436     O1448   2.435       .  S
Zr1436     O1449   2.503       .  S
Zr1436     O1442   2.402       .  S
Zr1436     O1443   2.393       .  S
Zr1437     O1439   2.434       .  S
Zr1437     O1461   2.436       .  S
Zr1437     O1463   2.435       .  S
Zr1437     O1441   2.384       .  S
Zr1437     O1444   2.377       .  S
Zr1438     O1464   2.435       .  S
Zr1438     O1465   2.435       .  S
Zr1438     O1440   2.436       .  S
Zr1438     O1441   2.407       .  S
Zr1438     O1442   2.413       .  S
O1439      H1476   0.991       .  S
O1440      H1471   0.990       .  S
O1440      H1485   0.990       .  S
O1442      H1468   0.966       .  S
O1443     Zr1453   2.378       .  S
O1444     Zr1453   2.374       .  S
O1444      H1469   0.966       .  S
C1445      C1768   1.499       .  S
C1446      C1681   1.474       .  S
C1447      C1660   1.500       .  S
O1448      H1484   0.990       .  S
O1449      C1451   1.297       .  A
O1450      C1451   1.276       .  A
C1451      C1705   1.496       .  S
O1452     Zr1453   2.440       .  S
O1452      H1481   0.990       .  S
Zr1453     O1456   2.437       .  S
Zr1453     O1457   2.439       .  S
Zr1453     O1458   2.395       .  S
O1454      C1459   1.286       .  A
O1455      H1472   0.990       .  S
O1455      H1487   0.990       .  S
O1456      H1473   0.990       .  S
O1457      H1477   0.990       .  S
O1457      H1486   0.990       .  S
O1458      C1459   1.277       .  A
C1459      C1636   1.465       .  S
O1460      H1479   0.990       .  S
O1460      H1483   0.990       .  S
O1461      H1475   0.990       .  S
O1461      H1482   0.990       .  S
O1462      C1466   1.279       .  A
O1463      C1466   1.284       .  A
O1464      H1474   0.990       .  S
O1465      H1478   0.990       .  S
C1466      C1645   1.471       .  S
Zr1489     O1490   2.436       .  S
Zr1489     O1491   2.416       .  S
Zr1489     O1492   2.432       .  S
Zr1489     O1495   2.392       .  S
Zr1489     O1497   2.377       .  S
Zr1489     O1498   2.373       .  S
Zr1489     O1499   2.395       .  S
Zr1489     O1500   2.385       .  S
O1490      H1546   0.989       .  S
O1490      H1554   0.989       .  S
O1491      C1511   1.284       .  A
O1492      C1513   1.283       .  A
O1493     Zr1503   2.410       .  S
O1493      C1512   1.280       .  A
O1494     Zr1502   2.480       .  S
O1494      C1513   1.290       .  A
O1495      C1512   1.278       .  A
O1496     Zr1504   2.486       .  S
O1496      C1511   1.293       .  A
O1497     Zr1502   2.407       .  S
O1497     Zr1504   2.379       .  S
O1498     Zr1503   2.382       .  S
O1498     Zr1504   2.360       .  S
O1498      H1533   0.966       .  S
O1499     Zr1502   2.419       .  S
O1499     Zr1519   2.357       .  S
O1499      H1536   0.964       .  S
O1500     Zr1503   2.377       .  S
O1500     Zr1519   2.369       .  S
Zr1501     O1526   2.443       .  S
Zr1501     O1520   2.464       .  S
Zr1501     O1528   2.417       .  S
Zr1501     O1516   2.390       .  S
Zr1501     O1507   2.405       .  S
Zr1501     O1508   2.417       .  S
Zr1501     O1509   2.379       .  S
Zr1501     O1510   2.368       .  S
Zr1502     O1521   2.436       .  S
Zr1502     O1514   2.435       .  S
Zr1502     O1515   2.489       .  S
Zr1502     O1508   2.405       .  S
Zr1502     O1509   2.399       .  S
Zr1503     O1505   2.436       .  S
Zr1503     O1527   2.436       .  S
Zr1503     O1529   2.414       .  S
Zr1503     O1507   2.387       .  S
Zr1503     O1510   2.381       .  S
Zr1504     O1530   2.435       .  S
Zr1504     O1531   2.435       .  S
Zr1504     O1506   2.436       .  S
Zr1504     O1507   2.417       .  S
Zr1504     O1508   2.421       .  S
O1505      H1542   0.990       .  S
O1506      H1537   0.990       .  S
O1506      H1551   0.990       .  S
O1508      H1534   0.966       .  S
O1509     Zr1519   2.382       .  S
O1510     Zr1519   2.370       .  S
O1510      H1535   0.966       .  S
C1511      C1672   1.516       .  S
C1512      C1828   1.449       .  S
C1513      C1657   1.503       .  S
O1514      H1550   0.990       .  S
O1515      C1517   1.294       .  A
O1516      C1517   1.276       .  A
C1517      C1621   1.480       .  S
O1518     Zr1519   2.440       .  S
O1518      H1547   0.990       .  S
Zr1519     O1522   2.438       .  S
Zr1519     O1523   2.439       .  S
Zr1519     O1524   2.376       .  S
O1520      C1525   1.289       .  A
O1521      H1538   0.990       .  S
O1521      H1553   0.990       .  S
O1522      H1539   0.990       .  S
O1523      H1543   0.990       .  S
O1523      H1552   0.990       .  S
O1524      C1525   1.275       .  A
C1525      C1741   1.483       .  S
O1526      H1545   0.990       .  S
O1526      H1549   0.990       .  S
O1527      H1541   0.990       .  S
O1527      H1548   0.990       .  S
O1528      C1532   1.281       .  A
O1529      C1532   1.279       .  A
O1530      H1540   0.990       .  S
O1531      H1544   0.990       .  S
C1532      C1648   1.456       .  S
Zr1555     O1556   2.440       .  S
Zr1555     O1557   2.446       .  S
Zr1555     O1558   2.432       .  S
Zr1555     O1561   2.412       .  S
Zr1555     O1563   2.380       .  S
Zr1555     O1564   2.371       .  S
Zr1555     O1565   2.416   1_554  S
Zr1555     O1566   2.399       .  S
O1556      H1612   0.988       .  S
O1556      H1620   0.989       .  S
O1557      C1577   1.288       .  A
O1558      C1579   1.282   1_554  A
O1559     Zr1569   2.436       .  S
O1559      C1578   1.285       .  A
O1560     Zr1568   2.503       .  S
O1560      C1579   1.295       .  A
O1561      C1578   1.279       .  A
O1562     Zr1570   2.441       .  S
O1562      C1577   1.285       .  A
O1563     Zr1568   2.408   1_554  S
O1563     Zr1570   2.383       .  S
O1564     Zr1569   2.381       .  S
O1564     Zr1570   2.360       .  S
O1564      H1599   0.966       .  S
O1565     Zr1568   2.424       .  S
O1565     Zr1585   2.367       .  S
O1565      H1602   0.963       .  S
O1566     Zr1569   2.374       .  S
O1566     Zr1585   2.402   1_554  S
Zr1567     O1592   2.441       .  S
Zr1567     O1586   2.483       .  S
Zr1567     O1594   2.409   1_556  S
Zr1567     O1582   2.357       .  S
Zr1567     O1573   2.401   1_556  S
Zr1567     O1574   2.425       .  S
Zr1567     O1575   2.381       .  S
Zr1567     O1576   2.365   1_556  S
Zr1568     O1587   2.437       .  S
Zr1568     O1580   2.434       .  S
Zr1568     O1581   2.513       .  S
Zr1568     O1574   2.405       .  S
Zr1568     O1575   2.415       .  S
Zr1569     O1571   2.436       .  S
Zr1569     O1593   2.436       .  S
Zr1569     O1595   2.413       .  S
Zr1569     O1573   2.390       .  S
Zr1569     O1576   2.393       .  S
Zr1570     O1596   2.435       .  S
Zr1570     O1597   2.437       .  S
Zr1570     O1572   2.436       .  S
Zr1570     O1573   2.407       .  S
Zr1570     O1574   2.384   1_554  S
O1571      H1608   0.990       .  S
O1572      H1603   0.990       .  S
O1572      H1617   0.990       .  S
O1574      H1600   0.965       .  S
O1575     Zr1585   2.380       .  S
O1576     Zr1585   2.354   1_554  S
O1576      H1601   0.965       .  S
C1577      C1624   1.496   1_655  S
C1578      C1633   1.466       .  S
C1579      C1732   1.509       .  S
O1580      H1616   0.990       .  S
O1581      C1583   1.297       .  A
O1582      C1583   1.269       .  A
C1583      C1801   1.481       .  S
O1584     Zr1585   2.439       .  S
O1584      H1613   0.990       .  S
Zr1585     O1588   2.438       .  S
Zr1585     O1589   2.440       .  S
Zr1585     O1590   2.433       .  S
O1586      C1591   1.292       .  A
O1587      H1604   0.990       .  S
O1587      H1619   0.990       .  S
O1588      H1605   0.990       .  S
O1589      H1609   0.990       .  S
O1589      H1618   0.990   1_556  S
O1590      C1591   1.282       .  A
C1591      C1696   1.501       .  S
O1592      H1611   0.990       .  S
O1592      H1615   0.990       .  S
O1593      H1607   0.990       .  S
O1593      H1614   0.990       .  S
O1594      C1598   1.281       .  A
O1595      C1598   1.282       .  A
O1596      H1606   0.990       .  S
O1597      H1610   0.990       .  S
C1598      C1717   1.476       .  S
C1621      C1622   1.403       .  A
C1621      C1626   1.410       .  A
C1622      H1627   1.085       .  S
C1623      C1624   1.418       .  A
C1623      C1630   1.444   1_455  S
C1625      C1626   1.407       .  A
C1625      H1628   1.084       .  S
C1626      C1629   1.444       .  S
C1629      N1631   1.157       .  T
C1630      N1632   1.157       .  T
C1633      C1634   1.404       .  A
C1633      C1638   1.409       .  A
C1634      C1635   1.404       .  A
C1634      H1639   1.084       .  S
C1635      C1636   1.410       .  A
C1635      C1642   1.444       .  S
C1636      C1637   1.401       .  A
C1637      C1638   1.393       .  A
C1637      H1640   1.085       .  S
C1638      C1641   1.446       .  S
C1641      N1643   1.157       .  T
C1642      N1644   1.157       .  T
C1645      C1646   1.405   1_655  A
C1645      C1650   1.413       .  A
C1647      C1648   1.404       .  A
C1647      C1654   1.446       .  S
C1649      C1650   1.400       .  A
C1649      H1652   1.085       .  S
C1650      C1653   1.443       .  S
C1653      N1655   1.157       .  T
C1654      N1656   1.157       .  T
C1657      C2270   1.401       .  A
C1657      C1662   1.418       .  A
C1658      C2269   1.401       .  A
C1658      C1659   1.388   1_565  A
C1658      H1663   1.076       .  S
C1659      C1660   1.411       .  A
C1659      C1666   1.446   1_545  S
C1660      C1661   1.414       .  A
C1661      C2274   1.419       .  A
C1661      H2276   1.084       .  S
C1662      C2273   1.419       .  A
C1662      C1665   1.441       .  S
H1664      C2273   1.084       .  S
C1665      N1667   1.157       .  T
C1666      N1668   1.156       .  T
C1669      C1670   1.413       .  A
C1669      C1674   1.419       .  A
C1670      C2283   1.417       .  A
C1670      H1675   1.084       .  S
C1671      C2282   1.417       .  A
C1671      C1672   1.420       .  A
C1671      C1678   1.443       .  S
C1672      C2285   1.411       .  A
C1673      C2284   1.411   1_545  A
C1673      C1674   1.402       .  A
C1673      H1676   1.084       .  S
C1674      C1677   1.445       .  S
C1677      N1679   1.157       .  T
C1678      N1680   1.157       .  T
C1681      C1682   1.409       .  A
C1681      C1686   1.416       .  A
C1682      C1683   1.392       .  A
C1682      H1687   1.085       .  S
C1683      C1684   1.402       .  A
C1683      C1690   1.445       .  S
C1684      C1685   1.395       .  A
C1685      C1686   1.392       .  A
C1685      H1688   1.085       .  S
C1686      C1689   1.441       .  S
C1689      N1691   1.157       .  T
C1690      N1692   1.157       .  T
C1693      C1694   1.406       .  A
C1693      C1698   1.417       .  A
C1694      C1695   1.413       .  A
C1694      H1699   1.084       .  S
C1695      C1696   1.416       .  A
C1695      C1702   1.444       .  S
C1696      C1697   1.406       .  A
C1697      C1698   1.413       .  A
C1697      H1700   1.085       .  S
C1698      C1701   1.444       .  S
C1701      N1703   1.157       .  T
C1702      N1704   1.157       .  T
C1705      C1706   1.411       .  A
C1705      C1710   1.413       .  A
C1706      H1711   1.083       .  S
C1707      C1708   1.405       .  A
C1707      C1714   1.446       .  S
C1709      C1710   1.416       .  A
C1709      H1712   1.084       .  S
C1710      C1713   1.441       .  S
C1713      N1715   1.157       .  T
C1714      N1716   1.157       .  T
C1717      C1718   1.411       .  A
C1717      C1722   1.413       .  A
C1718      C1719   1.396       .  A
C1718      H1723   1.084       .  S
C1719      C1720   1.405       .  A
C1719      C1726   1.443       .  S
C1720      C1721   1.401       .  A
C1721      C1722   1.388       .  A
C1721      H1724   1.085   1_554  S
C1722      C1725   1.445   1_554  S
C1725      N1727   1.157       .  T
C1726      N1728   1.157       .  T
C1729      C1734   1.407       .  A
C1730      C1731   1.422       .  A
C1730      H1735   1.083       .  S
C1731      C1738   1.442       .  S
C1732      C1733   1.403       .  A
C1733      C1734   1.387       .  A
C1733      H1736   1.066   1_556  S
C1734      C1737   1.447   1_556  S
C1737      N1739   1.157       .  T
C1738      N1740   1.158       .  T
C1741      C1742   1.407       .  A
C1741      C1746   1.409       .  A
C1742      C1743   1.390       .  A
C1742      H1747   1.085       .  S
C1743      C1744   1.412       .  A
C1743      C1750   1.445       .  S
C1744      C1745   1.413       .  A
C1745      C1746   1.407       .  A
C1745      H1748   1.085       .  S
C1746      C1749   1.443       .  S
C1749      N1751   1.157       .  T
C1750      N1752   1.157       .  T
C1753      C1754   1.387       .  A
C1753      C1758   1.416       .  A
C1754      C1755   1.387       .  A
C1754      H1759   1.089       .  S
C1755      C1756   1.425       .  A
C1755      C1762   1.442       .  S
C1756      C1757   1.409       .  A
C1757      C1758   1.416       .  A
C1757      H1760   1.084       .  S
C1758      C1761   1.442       .  S
C1761      N1763   1.157       .  T
C1762      N1764   1.156       .  T
C1765      C2378   1.405       .  A
C1765      C1770   1.413       .  A
C1766      C2377   1.405   1_545  A
C1766      C1767   1.412       .  A
C1766      H1771   1.084       .  S
C1767      C1768   1.418       .  A
C1767      C1774   1.443       .  S
C1768      C1769   1.404   1_545  A
C1769      C2382   1.406       .  A
C1769      H2384   1.082       .  S
C1770      C2381   1.406       .  A
C1770      C1773   1.445       .  S
H1772      C2381   1.082       .  S
C1773      N1775   1.157       .  T
C1774      N1776   1.157       .  T
C1777      C1778   1.406       .  A
C1777      C1782   1.418       .  A
C1778      C2391   1.392       .  A
C1778      H1783   1.081       .  S
C1779      C2390   1.392       .  A
C1779      C1780   1.420       .  A
C1779      C1786   1.448       .  S
C1780      C2393   1.413       .  A
C1781      C2392   1.413       .  A
C1781      C1782   1.418       .  A
C1781      H1784   1.084   1_545  S
C1782      C1785   1.442       .  S
C1785      N1787   1.157       .  T
C1786      N1788   1.158       .  T
C1789      C1790   1.394       .  A
C1789      C1794   1.406       .  A
C1790      C1791   1.383       .  A
C1790      H1795   1.082       .  S
C1791      C1792   1.418       .  A
C1791      C1798   1.445       .  S
C1792      C1793   1.406       .  A
C1793      C1794   1.393       .  A
C1793      H1796   1.084       .  S
C1794      C1797   1.444       .  S
C1797      N1799   1.157       .  T
C1798      N1800   1.157       .  T
C1801      C1802   1.406       .  A
C1801      C1806   1.413       .  A
C1802      C1803   1.383       .  A
C1802      H1807   1.086       .  S
C1803      C1804   1.405       .  A
C1803      C1810   1.447       .  S
C1804      C1805   1.412       .  A
C1805      C1806   1.419       .  A
C1805      H1808   1.084       .  S
C1806      C1809   1.441       .  S
C1809      N1811   1.157       .  T
C1810      N1812   1.157       .  T
C1813      C1814   1.399       .  A
C1813      C1818   1.418       .  A
C1814      C1815   1.404       .  A
C1814      H1819   1.086       .  S
C1815      C1816   1.427       .  A
C1815      C1822   1.443       .  S
C1816      C1817   1.417       .  A
C1817      C1818   1.428       .  A
C1817      H1820   1.083       .  S
C1818      C1821   1.441       .  S
C1821      N1823   1.157       .  T
C1822      N1824   1.157       .  T
C1825      C1826   1.405       .  A
C1825      C1830   1.413       .  A
C1826      C1827   1.386       .  A
C1826      H1831   1.084       .  S
C1827      C1828   1.403       .  A
C1827      C1834   1.445       .  S
C1828      C1829   1.400       .  A
C1829      C1830   1.393       .  A
C1829      H1832   1.085       .  S
C1830      C1833   1.445       .  S
C1833      N1835   1.157       .  T
C1834      N1836   1.157       .  T
Zr1837     O1838   2.440       .  S
Zr1837     O1839   2.429       .  S
Zr1837     O1840   2.412       .  S
Zr1837     O1843   2.392       .  S
Zr1837     O1845   2.378       .  S
Zr1837     O1846   2.373       .  S
Zr1837     O1847   2.405       .  S
Zr1837     O1848   2.389       .  S
O1838      H1894   0.989       .  S
O1838      H1902   0.989       .  S
O1839      C1859   1.284       .  A
O1840      C1861   1.273       .  A
O1841     Zr1851   2.409       .  S
O1841      C1860   1.280       .  A
O1842     Zr1850   2.486       .  S
O1842      C1861   1.289       .  A
O1843      C1860   1.280       .  A
O1844     Zr1852   2.480       .  S
O1844      C1859   1.292       .  A
O1845     Zr1850   2.407       .  S
O1845     Zr1852   2.374       .  S
O1846     Zr1851   2.365       .  S
O1846     Zr1852   2.358       .  S
O1846      H1881   0.966       .  S
O1847     Zr1850   2.414       .  S
O1847     Zr1867   2.374       .  S
O1847      H1884   0.964       .  S
O1848     Zr1851   2.378       .  S
O1848     Zr1867   2.383       .  S
Zr1849     O1874   2.450       .  S
Zr1849     O1868   2.532       .  S
Zr1849     O1876   2.426       .  S
Zr1849     O1864   2.379       .  S
Zr1849     O1855   2.421       .  S
Zr1849     O1856   2.437       .  S
Zr1849     O1857   2.379       .  S
Zr1849     O1858   2.368       .  S
Zr1850     O1869   2.434       .  S
Zr1850     O1862   2.435       .  S
Zr1850     O1863   2.487       .  S
Zr1850     O1856   2.401       .  S
Zr1850     O1857   2.412       .  S
Zr1851     O1853   2.436       .  S
Zr1851     O1875   2.436       .  S
Zr1851     O1877   2.375       .  S
Zr1851     O1855   2.391       .  S
Zr1851     O1858   2.409       .  S
Zr1852     O1878   2.435       .  S
Zr1852     O1879   2.436       .  S
Zr1852     O1854   2.437       .  S
Zr1852     O1855   2.420       .  S
Zr1852     O1856   2.407       .  S
O1853      H1890   0.990       .  S
O1854      H1885   0.990       .  S
O1854      H1899   0.990       .  S
O1856      H1882   0.964       .  S
O1857     Zr1867   2.388       .  S
O1858     Zr1867   2.371       .  S
O1858      H1883   0.966       .  S
C1859      C2377   1.492       .  S
C1860      C2437   1.464       .  S
C1861      C2392   1.506   1_565  S
O1862      H1898   0.990       .  S
O1863      C1865   1.294       .  A
O1864      C1865   1.275       .  A
C1865      C2416   1.471       .  S
O1866     Zr1867   2.443       .  S
O1866      H1895   0.990       .  S
Zr1867     O1870   2.438       .  S
Zr1867     O1871   2.440       .  S
Zr1867     O1872   2.410       .  S
O1868      C1873   1.300       .  A
O1869      H1886   0.990       .  S
O1869      H1901   0.990       .  S
O1870      H1887   0.990       .  S
O1871      H1891   0.989       .  S
O1871      H1900   0.989       .  S
O1872      C1873   1.279       .  A
C1873      C2428   1.529       .  S
O1874      H1893   0.990       .  S
O1874      H1897   0.989       .  S
O1875      H1889   0.990       .  S
O1875      H1896   0.990       .  S
O1876      C1880   1.277       .  A
O1877      C1880   1.271       .  A
O1878      H1888   0.990       .  S
O1879      H1892   0.990       .  S
C1880      C2401   1.450       .  S
Zr1903     O1904   2.434       .  S
Zr1903     O1905   2.449       .  S
Zr1903     O1906   2.429       .  S
Zr1903     O1909   2.409       .  S
Zr1903     O1911   2.378       .  S
Zr1903     O1912   2.373       .  S
Zr1903     O1913   2.407   1_554  S
Zr1903     O1914   2.403       .  S
O1904      H1960   0.988       .  S
O1904      H1968   0.989       .  S
O1905      C1925   1.288       .  A
O1906      C1927   1.279   1_554  A
O1907     Zr1917   2.441       .  S
O1907      C1926   1.287       .  A
O1908     Zr1916   2.475       .  S
O1908      C1927   1.287       .  A
O1909      C1926   1.281       .  A
O1910     Zr1918   2.435       .  S
O1910      C1925   1.283       .  A
O1911     Zr1916   2.404   1_554  S
O1911     Zr1918   2.382       .  S
O1912     Zr1917   2.381       .  S
O1912     Zr1918   2.366       .  S
O1912      H1947   0.966       .  S
O1913     Zr1916   2.419       .  S
O1913     Zr1933   2.368       .  S
O1913      H1950   0.963       .  S
O1914     Zr1917   2.376       .  S
O1914     Zr1933   2.408   1_554  S
Zr1915     O1940   2.444       .  S
Zr1915     O1934   2.493       .  S
Zr1915     O1942   2.411       .  S
Zr1915     O1930   2.395       .  S
Zr1915     O1921   2.415   1_556  S
Zr1915     O1922   2.418       .  S
Zr1915     O1923   2.381       .  S
Zr1915     O1924   2.385       .  S
Zr1916     O1935   2.435       .  S
Zr1916     O1928   2.435       .  S
Zr1916     O1929   2.467       .  S
Zr1916     O1922   2.411       .  S
Zr1916     O1923   2.413       .  S
Zr1917     O1919   2.435       .  S
Zr1917     O1941   2.437       .  S
Zr1917     O1943   2.408       .  S
Zr1917     O1921   2.394       .  S
Zr1917     O1924   2.396   1_554  S
Zr1918     O1944   2.436       .  S
Zr1918     O1945   2.436       .  S
Zr1918     O1920   2.436       .  S
Zr1918     O1921   2.402       .  S
Zr1918     O1922   2.384   1_554  S
O1919      H1956   0.990       .  S
O1920      H1951   0.990       .  S
O1920      H1965   0.990       .  S
O1922      H1948   0.964       .  S
O1923     Zr1933   2.382       .  S
O1924     Zr1933   2.349       .  S
O1924      H1949   0.964       .  S
C1925      C2320   1.483       .  S
C1926      C2356   1.485       .  S
O1928      H1964   0.990       .  S
O1929      C1931   1.290       .  A
O1930      C1931   1.281       .  A
C1931      C2365   1.466       .  S
O1932     Zr1933   2.440       .  S
O1932      H1961   0.990       .  S
Zr1933     O1936   2.437       .  S
Zr1933     O1937   2.442       .  S
Zr1933     O1938   2.440       .  S
O1934      C1939   1.294       .  A
O1935      H1952   0.990       .  S
O1935      H1967   0.990       .  S
O1936      H1953   0.990       .  S
O1937      H1957   0.990       .  S
O1937      H1966   0.989       .  S
O1938      C1939   1.285       .  A
C1939      C2425   1.512       .  S
O1940      H1959   0.990       .  S
O1940      H1963   0.990       .  S
O1941      H1955   0.990       .  S
O1941      H1962   0.990       .  S
O1942      C1946   1.280   1_556  A
O1943      C1946   1.274       .  A
O1944      H1954   0.990       .  S
O1945      H1958   0.990       .  S
C1946      C2332   1.460       .  S
Zr1969     O1970   2.435       .  S
Zr1969     O1971   2.437       .  S
Zr1969     O1972   2.423       .  S
Zr1969     O1975   2.396       .  S
Zr1969     O1977   2.377       .  S
Zr1969     O1978   2.371       .  S
Zr1969     O1979   2.401       .  S
Zr1969     O1980   2.399       .  S
O1970      H2026   0.989       .  S
O1970      H2034   0.989       .  S
O1971      C1991   1.285       .  A
O1972      C1993   1.282       .  A
O1973     Zr1983   2.415       .  S
O1973      C1992   1.280       .  A
O1974     Zr1982   2.486       .  S
O1974      C1993   1.293       .  A
O1975      C1992   1.279       .  A
O1976     Zr1984   2.465       .  S
O1976      C1991   1.289       .  A
O1977     Zr1982   2.413       .  S
O1977     Zr1984   2.379       .  S
O1978     Zr1983   2.391       .  S
O1978     Zr1984   2.364       .  S
O1978      H2013   0.966       .  S
O1979     Zr1982   2.426       .  S
O1979     Zr1999   2.378       .  S
O1979      H2016   0.964       .  S
O1980     Zr1983   2.387       .  S
O1980     Zr1999   2.395       .  S
Zr1981     O2006   2.448       .  S
Zr1981     O2000   2.485       .  S
Zr1981     O2008   2.367       .  S
Zr1981     O1996   2.387       .  S
Zr1981     O1987   2.408       .  S
Zr1981     O1988   2.420       .  S
Zr1981     O1989   2.372       .  S
Zr1981     O1990   2.384       .  S
Zr1982     O2001   2.433       .  S
Zr1982     O1994   2.435       .  S
Zr1982     O1995   2.506       .  S
Zr1982     O1988   2.414       .  S
Zr1982     O1989   2.402       .  S
Zr1983     O1985   2.437       .  S
Zr1983     O2007   2.438       .  S
Zr1983     O2009   2.424       .  S
Zr1983     O1987   2.372       .  S
Zr1983     O1990   2.379       .  S
Zr1984     O2010   2.436       .  S
Zr1984     O2011   2.439       .  S
Zr1984     O1986   2.437       .  S
Zr1984     O1987   2.402       .  S
Zr1984     O1988   2.409       .  S
O1985      H2022   0.990       .  S
O1986      H2017   0.990       .  S
O1986      H2031   0.990       .  S
O1988      H2014   0.964       .  S
O1989     Zr1999   2.379       .  S
O1990     Zr1999   2.359       .  S
O1990      H2015   0.966       .  S
C1991      C2281   1.513       .  S
C1992      C2296   1.450       .  S
C1993      C2389   1.508       .  S
O1994      H2030   0.990       .  S
O1995      C1997   1.291       .  A
O1996      C1997   1.262       .  A
C1997      C2368   1.499       .  S
O1998     Zr1999   2.439       .  S
O1998      H2027   0.990       .  S
Zr1999     O2002   2.436       .  S
Zr1999     O2003   2.439       .  S
Zr1999     O2004   2.433       .  S
O2000      C2005   1.293       .  A
O2001      H2018   0.990       .  S
O2001      H2033   0.990       .  S
O2002      H2019   0.990       .  S
O2003      H2023   0.990       .  S
O2003      H2032   0.989       .  S
O2004      C2005   1.283       .  A
C2005      C2305   1.501       .  S
O2006      H2025   0.988       .  S
O2006      H2029   0.988       .  S
O2007      H2021   0.990       .  S
O2007      H2028   0.990       .  S
O2008      C2012   1.270       .  A
O2009      C2012   1.277       .  A
O2010      H2020   0.990       .  S
O2011      H2024   0.990       .  S
C2012      C2404   1.468       .  S
Zr2035     O2036   2.422       .  S
Zr2035     O2037   2.452       .  S
Zr2035     O2038   2.427       .  S
Zr2035     O2041   2.427       .  S
Zr2035     O2043   2.382       .  S
Zr2035     O2044   2.377       .  S
Zr2035     O2045   2.412       .  S
Zr2035     O2046   2.391       .  S
O2036      H2092   0.988       .  S
O2036      H2100   0.988       .  S
O2037      C2057   1.289       .  A
O2038      C2059   1.277       .  A
O2039     Zr2049   2.409       .  S
O2039      C2058   1.282       .  A
O2040     Zr2048   2.471       .  S
O2040      C2059   1.286       .  A
O2041      C2058   1.285       .  A
O2042     Zr2050   2.459       .  S
O2042      C2057   1.288       .  A
O2043     Zr2048   2.417       .  S
O2043     Zr2050   2.376       .  S
O2044     Zr2049   2.387       .  S
O2044     Zr2050   2.373       .  S
O2044      H2079   0.966       .  S
O2045     Zr2048   2.425       .  S
O2045     Zr2065   2.368       .  S
O2045      H2082   0.964       .  S
O2046     Zr2049   2.377       .  S
O2046     Zr2065   2.377       .  S
Zr2047     O2072   2.443       .  S
Zr2047     O2066   2.444       .  S
Zr2047     O2074   2.396       .  S
Zr2047     O2062   2.379       .  S
Zr2047     O2053   2.394       .  S
Zr2047     O2054   2.404       .  S
Zr2047     O2055   2.376       .  S
Zr2047     O2056   2.365       .  S
Zr2048     O2067   2.436       .  S
Zr2048     O2060   2.435       .  S
Zr2048     O2061   2.503       .  S
Zr2048     O2054   2.402       .  S
Zr2048     O2055   2.393       .  S
Zr2049     O2051   2.434       .  S
Zr2049     O2073   2.436       .  S
Zr2049     O2075   2.435       .  S
Zr2049     O2053   2.384       .  S
Zr2049     O2056   2.377       .  S
Zr2050     O2076   2.435       .  S
Zr2050     O2077   2.435       .  S
Zr2050     O2052   2.436       .  S
Zr2050     O2053   2.407       .  S
Zr2050     O2054   2.413       .  S
O2051      H2088   0.991       .  S
O2052      H2083   0.990       .  S
O2052      H2097   0.990       .  S
O2054      H2080   0.966       .  S
O2055     Zr2065   2.378       .  S
O2056     Zr2065   2.374       .  S
O2056      H2081   0.966       .  S
C2057      C2380   1.499       .  S
C2058      C2293   1.474       .  S
C2059      C2272   1.500       .  S
O2060      H2096   0.990       .  S
O2061      C2063   1.297       .  A
O2062      C2063   1.276       .  A
C2063      C2317   1.496       .  S
O2064     Zr2065   2.440       .  S
O2064      H2093   0.990       .  S
Zr2065     O2068   2.437       .  S
Zr2065     O2069   2.439       .  S
Zr2065     O2070   2.395       .  S
O2066      C2071   1.286       .  A
O2067      H2084   0.990       .  S
O2067      H2099   0.990       .  S
O2068      H2085   0.990       .  S
O2069      H2089   0.990       .  S
O2069      H2098   0.990       .  S
O2070      C2071   1.277       .  A
C2071      C2248   1.465       .  S
O2072      H2091   0.990       .  S
O2072      H2095   0.990       .  S
O2073      H2087   0.990       .  S
O2073      H2094   0.990       .  S
O2074      C2078   1.279       .  A
O2075      C2078   1.284       .  A
O2076      H2086   0.990       .  S
O2077      H2090   0.990       .  S
C2078      C2257   1.471       .  S
Zr2101     O2102   2.436       .  S
Zr2101     O2103   2.416       .  S
Zr2101     O2104   2.432       .  S
Zr2101     O2107   2.392       .  S
Zr2101     O2109   2.377       .  S
Zr2101     O2110   2.373       .  S
Zr2101     O2111   2.395       .  S
Zr2101     O2112   2.385       .  S
O2102      H2158   0.989       .  S
O2102      H2166   0.989       .  S
O2103      C2123   1.284       .  A
O2104      C2125   1.283       .  A
O2105     Zr2115   2.410       .  S
O2105      C2124   1.280       .  A
O2106     Zr2114   2.480       .  S
O2106      C2125   1.290       .  A
O2107      C2124   1.278       .  A
O2108     Zr2116   2.486       .  S
O2108      C2123   1.293       .  A
O2109     Zr2114   2.407       .  S
O2109     Zr2116   2.379       .  S
O2110     Zr2115   2.382       .  S
O2110     Zr2116   2.360       .  S
O2110      H2145   0.966       .  S
O2111     Zr2114   2.419       .  S
O2111     Zr2131   2.357       .  S
O2111      H2148   0.964       .  S
O2112     Zr2115   2.377       .  S
O2112     Zr2131   2.369       .  S
Zr2113     O2138   2.443       .  S
Zr2113     O2132   2.464       .  S
Zr2113     O2140   2.417       .  S
Zr2113     O2128   2.390       .  S
Zr2113     O2119   2.405       .  S
Zr2113     O2120   2.417       .  S
Zr2113     O2121   2.379       .  S
Zr2113     O2122   2.368       .  S
Zr2114     O2133   2.436       .  S
Zr2114     O2126   2.435       .  S
Zr2114     O2127   2.489       .  S
Zr2114     O2120   2.405       .  S
Zr2114     O2121   2.399       .  S
Zr2115     O2117   2.436       .  S
Zr2115     O2139   2.436       .  S
Zr2115     O2141   2.414       .  S
Zr2115     O2119   2.387       .  S
Zr2115     O2122   2.381       .  S
Zr2116     O2142   2.435       .  S
Zr2116     O2143   2.435       .  S
Zr2116     O2118   2.436       .  S
Zr2116     O2119   2.417       .  S
Zr2116     O2120   2.421       .  S
O2117      H2154   0.990       .  S
O2118      H2149   0.990       .  S
O2118      H2163   0.990       .  S
O2120      H2146   0.966       .  S
O2121     Zr2131   2.382       .  S
O2122     Zr2131   2.370       .  S
O2122      H2147   0.966       .  S
C2123      C2284   1.516       .  S
C2124      C2440   1.449       .  S
C2125      C2269   1.503       .  S
O2126      H2162   0.990       .  S
O2127      C2129   1.294       .  A
O2128      C2129   1.276       .  A
C2129      C2233   1.480       .  S
O2130     Zr2131   2.440       .  S
O2130      H2159   0.990       .  S
Zr2131     O2134   2.438       .  S
Zr2131     O2135   2.439       .  S
Zr2131     O2136   2.376       .  S
O2132      C2137   1.289       .  A
O2133      H2150   0.990       .  S
O2133      H2165   0.990       .  S
O2134      H2151   0.990       .  S
O2135      H2155   0.990       .  S
O2135      H2164   0.990       .  S
O2136      C2137   1.275       .  A
C2137      C2353   1.483       .  S
O2138      H2157   0.990       .  S
O2138      H2161   0.990       .  S
O2139      H2153   0.990       .  S
O2139      H2160   0.990       .  S
O2140      C2144   1.281       .  A
O2141      C2144   1.279       .  A
O2142      H2152   0.990       .  S
O2143      H2156   0.990       .  S
C2144      C2260   1.456       .  S
Zr2167     O2168   2.440       .  S
Zr2167     O2169   2.446       .  S
Zr2167     O2170   2.432       .  S
Zr2167     O2173   2.412       .  S
Zr2167     O2175   2.380       .  S
Zr2167     O2176   2.371       .  S
Zr2167     O2177   2.416   1_554  S
Zr2167     O2178   2.399       .  S
O2168      H2224   0.988       .  S
O2168      H2232   0.989       .  S
O2169      C2189   1.288       .  A
O2170      C2191   1.282   1_554  A
O2171     Zr2181   2.436       .  S
O2171      C2190   1.285       .  A
O2172     Zr2180   2.503       .  S
O2172      C2191   1.295       .  A
O2173      C2190   1.279       .  A
O2174     Zr2182   2.441       .  S
O2174      C2189   1.285       .  A
O2175     Zr2180   2.408   1_554  S
O2175     Zr2182   2.383       .  S
O2176     Zr2181   2.381       .  S
O2176     Zr2182   2.360       .  S
O2176      H2211   0.966       .  S
O2177     Zr2180   2.424       .  S
O2177     Zr2197   2.367       .  S
O2177      H2214   0.963       .  S
O2178     Zr2181   2.374       .  S
O2178     Zr2197   2.402   1_554  S
Zr2179     O2204   2.441       .  S
Zr2179     O2198   2.483       .  S
Zr2179     O2206   2.409   1_556  S
Zr2179     O2194   2.357       .  S
Zr2179     O2185   2.401   1_556  S
Zr2179     O2186   2.425       .  S
Zr2179     O2187   2.381       .  S
Zr2179     O2188   2.365   1_556  S
Zr2180     O2199   2.437       .  S
Zr2180     O2192   2.434       .  S
Zr2180     O2193   2.513       .  S
Zr2180     O2186   2.405       .  S
Zr2180     O2187   2.415       .  S
Zr2181     O2183   2.436       .  S
Zr2181     O2205   2.436       .  S
Zr2181     O2207   2.413       .  S
Zr2181     O2185   2.390       .  S
Zr2181     O2188   2.393       .  S
Zr2182     O2208   2.435       .  S
Zr2182     O2209   2.437       .  S
Zr2182     O2184   2.436       .  S
Zr2182     O2185   2.407       .  S
Zr2182     O2186   2.384   1_554  S
O2183      H2220   0.990       .  S
O2184      H2215   0.990       .  S
O2184      H2229   0.990       .  S
O2186      H2212   0.965       .  S
O2187     Zr2197   2.380       .  S
O2188     Zr2197   2.354   1_554  S
O2188      H2213   0.965       .  S
C2189      C2236   1.496   1_655  S
C2190      C2245   1.466       .  S
C2191      C2344   1.509       .  S
O2192      H2228   0.990       .  S
O2193      C2195   1.297       .  A
O2194      C2195   1.269       .  A
C2195      C2413   1.481       .  S
O2196     Zr2197   2.439       .  S
O2196      H2225   0.990       .  S
Zr2197     O2200   2.438       .  S
Zr2197     O2201   2.440       .  S
Zr2197     O2202   2.433       .  S
O2198      C2203   1.292       .  A
O2199      H2216   0.990       .  S
O2199      H2231   0.990       .  S
O2200      H2217   0.990       .  S
O2201      H2221   0.990       .  S
O2201      H2230   0.990   1_556  S
O2202      C2203   1.282       .  A
C2203      C2308   1.501       .  S
O2204      H2223   0.990       .  S
O2204      H2227   0.990       .  S
O2205      H2219   0.990       .  S
O2205      H2226   0.990       .  S
O2206      C2210   1.281       .  A
O2207      C2210   1.282       .  A
O2208      H2218   0.990       .  S
O2209      H2222   0.990       .  S
C2210      C2329   1.476       .  S
C2233      C2234   1.403       .  A
C2233      C2238   1.410       .  A
C2234      H2239   1.085       .  S
C2235      C2236   1.418       .  A
C2235      C2242   1.444   1_455  S
C2237      C2238   1.407       .  A
C2237      H2240   1.084       .  S
C2238      C2241   1.444       .  S
C2241      N2243   1.157       .  T
C2242      N2244   1.157       .  T
C2245      C2246   1.404       .  A
C2245      C2250   1.409       .  A
C2246      C2247   1.404       .  A
C2246      H2251   1.084       .  S
C2247      C2248   1.410       .  A
C2247      C2254   1.444       .  S
C2248      C2249   1.401       .  A
C2249      C2250   1.393       .  A
C2249      H2252   1.085       .  S
C2250      C2253   1.446       .  S
C2253      N2255   1.157       .  T
C2254      N2256   1.157       .  T
C2257      C2258   1.405   1_655  A
C2257      C2262   1.413       .  A
C2259      C2260   1.404       .  A
C2259      C2266   1.446       .  S
C2261      C2262   1.400       .  A
C2261      H2264   1.085       .  S
C2262      C2265   1.443       .  S
C2265      N2267   1.157       .  T
C2266      N2268   1.157       .  T
C2269      C2274   1.418   1_565  A
C2270      C2271   1.388       .  A
C2270      H2275   1.076       .  S
C2271      C2272   1.411       .  A
C2271      C2278   1.446       .  S
C2272      C2273   1.414       .  A
C2274      C2277   1.441       .  S
C2277      N2279   1.157       .  T
C2278      N2280   1.156       .  T
C2281      C2282   1.413       .  A
C2281      C2286   1.419       .  A
C2282      H2287   1.084       .  S
C2283      C2284   1.420   1_545  A
C2283      C2290   1.443   1_545  S
C2285      C2286   1.402       .  A
C2285      H2288   1.084       .  S
C2286      C2289   1.445       .  S
C2289      N2291   1.157       .  T
C2290      N2292   1.157       .  T
C2293      C2294   1.409       .  A
C2293      C2298   1.416       .  A
C2294      C2295   1.392       .  A
C2294      H2299   1.085       .  S
C2295      C2296   1.402       .  A
C2295      C2302   1.445       .  S
C2296      C2297   1.395       .  A
C2297      C2298   1.392       .  A
C2297      H2300   1.085       .  S
C2298      C2301   1.441       .  S
C2301      N2303   1.157       .  T
C2302      N2304   1.157       .  T
C2305      C2306   1.406       .  A
C2305      C2310   1.417       .  A
C2306      C2307   1.413       .  A
C2306      H2311   1.084       .  S
C2307      C2308   1.416       .  A
C2307      C2314   1.444       .  S
C2308      C2309   1.406       .  A
C2309      C2310   1.413       .  A
C2309      H2312   1.085       .  S
C2310      C2313   1.444       .  S
C2313      N2315   1.157       .  T
C2314      N2316   1.157       .  T
C2317      C2318   1.411       .  A
C2317      C2322   1.413       .  A
C2318      H2323   1.083       .  S
C2319      C2320   1.405       .  A
C2319      C2326   1.446       .  S
C2321      C2322   1.416       .  A
C2321      H2324   1.084       .  S
C2322      C2325   1.441       .  S
C2325      N2327   1.157       .  T
C2326      N2328   1.157       .  T
C2329      C2330   1.411       .  A
C2329      C2334   1.413       .  A
C2330      C2331   1.396       .  A
C2330      H2335   1.084       .  S
C2331      C2332   1.405       .  A
C2331      C2338   1.443       .  S
C2332      C2333   1.401       .  A
C2333      C2334   1.388       .  A
C2333      H2336   1.085   1_554  S
C2334      C2337   1.445   1_554  S
C2337      N2339   1.157       .  T
C2338      N2340   1.157       .  T
C2341      C2346   1.407       .  A
C2342      C2343   1.422       .  A
C2342      H2347   1.083       .  S
C2343      C2350   1.442       .  S
C2344      C2345   1.403       .  A
C2345      C2346   1.387       .  A
C2345      H2348   1.066   1_556  S
C2346      C2349   1.447   1_556  S
C2349      N2351   1.157       .  T
C2350      N2352   1.158       .  T
C2353      C2354   1.407       .  A
C2353      C2358   1.409       .  A
C2354      C2355   1.390       .  A
C2354      H2359   1.085       .  S
C2355      C2356   1.412       .  A
C2355      C2362   1.445       .  S
C2356      C2357   1.413       .  A
C2357      C2358   1.407       .  A
C2357      H2360   1.085       .  S
C2358      C2361   1.443       .  S
C2361      N2363   1.157       .  T
C2362      N2364   1.157       .  T
C2365      C2366   1.387       .  A
C2365      C2370   1.416       .  A
C2366      C2367   1.387       .  A
C2366      H2371   1.089       .  S
C2367      C2368   1.425       .  A
C2367      C2374   1.442       .  S
C2368      C2369   1.409       .  A
C2369      C2370   1.416       .  A
C2369      H2372   1.084       .  S
C2370      C2373   1.442       .  S
C2373      N2375   1.157       .  T
C2374      N2376   1.156       .  T
C2377      C2382   1.413       .  A
C2378      C2379   1.412       .  A
C2378      H2383   1.084       .  S
C2379      C2380   1.418       .  A
C2379      C2386   1.443       .  S
C2380      C2381   1.404       .  A
C2382      C2385   1.445       .  S
C2385      N2387   1.157       .  T
C2386      N2388   1.157       .  T
C2389      C2390   1.406       .  A
C2389      C2394   1.418       .  A
C2390      H2395   1.081       .  S
C2391      C2392   1.420       .  A
C2391      C2398   1.448       .  S
C2393      C2394   1.418       .  A
C2393      H2396   1.084       .  S
C2394      C2397   1.442       .  S
C2397      N2399   1.157       .  T
C2398      N2400   1.158       .  T
C2401      C2402   1.394       .  A
C2401      C2406   1.406       .  A
C2402      C2403   1.383       .  A
C2402      H2407   1.082       .  S
C2403      C2404   1.418       .  A
C2403      C2410   1.445       .  S
C2404      C2405   1.406       .  A
C2405      C2406   1.393       .  A
C2405      H2408   1.084       .  S
C2406      C2409   1.444       .  S
C2409      N2411   1.157       .  T
C2410      N2412   1.157       .  T
C2413      C2414   1.406       .  A
C2413      C2418   1.413       .  A
C2414      C2415   1.383       .  A
C2414      H2419   1.086       .  S
C2415      C2416   1.405       .  A
C2415      C2422   1.447       .  S
C2416      C2417   1.412       .  A
C2417      C2418   1.419       .  A
C2417      H2420   1.084       .  S
C2418      C2421   1.441       .  S
C2421      N2423   1.157       .  T
C2422      N2424   1.157       .  T
C2425      C2426   1.399       .  A
C2425      C2430   1.418       .  A
C2426      C2427   1.404       .  A
C2426      H2431   1.086       .  S
C2427      C2428   1.427       .  A
C2427      C2434   1.443       .  S
C2428      C2429   1.417       .  A
C2429      C2430   1.428       .  A
C2429      H2432   1.083       .  S
C2430      C2433   1.441       .  S
C2433      N2435   1.157       .  T
C2434      N2436   1.157       .  T
C2437      C2438   1.405       .  A
C2437      C2442   1.413       .  A
C2438      C2439   1.386       .  A
C2438      H2443   1.084       .  S
C2439      C2440   1.403       .  A
C2439      C2446   1.445       .  S
C2440      C2441   1.400       .  A
C2441      C2442   1.393       .  A
C2441      H2444   1.085       .  S
C2442      C2445   1.445       .  S
C2445      N2447   1.157       .  T
C2446      N2448   1.157       .  T
