geometry optimzed in LAMMPS
_audit_creation_date              2020-11-30 
_audit_creation_method            'lammps2cif' 
_symmetry_space_group_name_H-M    'P1' 
_symmetry_Int_Tables_number       1 
_symmetry_cell_setting            triclinic 
loop_ 
_symmetry_equiv_pos_as_xyz 
  x,y,z 
_cell_length_a                    52.15911907 
_cell_length_b                    52.16928114782594 
_cell_length_c                    78.18795170124146 
_cell_angle_alpha                 90.0545497576579 
_cell_angle_beta                  90.0405801885886 
_cell_angle_gamma                 119.98345188260349 
loop_ 
_atom_site_label 
_atom_site_type_symbol 
_atom_site_fract_x 
_atom_site_fract_y 
_atom_site_fract_z 
_atom_site_charge 
O1          O  0.49698567  0.49696906  0.22568608    -0.72000
O2          O  0.49247672  0.49649709  0.27448802    -0.72300
O3          O  0.49042386  0.03057759  0.24940293    -0.72100
O4          O  0.49847911  0.46241997  0.25067974    -0.72100
O5          O  0.04620448  0.49006228  0.25270927    -0.72100
O6          O  0.03820904  0.05866890  0.25012011    -0.72100
O7          O  0.04011384  0.02555506  0.27563633    -0.72000
O8          O  0.04483267  0.02376950  0.22737737    -0.72200
V9          V  0.49550935  0.49710883  0.25010127     1.35200
V10         V  0.04140341  0.02392016  0.25145991     1.35200
C11         C  0.02186632  0.01044326  0.21824046     0.77200
C12         C  0.01561095  0.01178323  0.28333834     0.77300
C13         C  0.51282878  0.05625494  0.24947599     0.77100
C14         C  0.52360287  0.46447075  0.25174217     0.77100
O15         O  0.48676063  0.27936493  0.25236837    -0.72000
O16         O  0.49420381  0.21036167  0.25077428    -0.72300
O17         O  0.49579372  0.24669887  0.27550338    -0.72100
O18         O  0.48443395  0.24260396  0.22771166    -0.72100
O19         O  0.03190924  0.26868840  0.22379341    -0.72100
O20         O  0.04307106  0.27607325  0.27226418    -0.72100
O21         O  0.04180933  0.23824934  0.24824987    -0.72000
O22         O  0.03395105  0.30654408  0.24776051    -0.72200
V23         V  0.49124065  0.24530093  0.25152688     1.35200
V24         V  0.03680410  0.27181593  0.24807258     1.35200
C25         C  0.00918742  0.30477050  0.25017361     0.77200
C26         C  0.01945391  0.21263261  0.24941070     0.77300
C27         C  0.52105013  0.26233235  0.28211480     0.77100
C28         C  0.50601116  0.25478844  0.21753677     0.77100
O29         O  0.25748772  0.46102608  0.25255065    -0.72000
O30         O  0.25906637  0.03487033  0.25001080    -0.72300
O31         O  0.25278033  0.99729977  0.27519897    -0.72100
O32         O  0.26435957  0.99891445  0.22744804    -0.72100
O33         O  0.21692965  0.47788755  0.22332942    -0.72100
O34         O  0.20514349  0.47155115  0.27171696    -0.72100
O35         O  0.21118455  0.01112844  0.24769586    -0.72000
O36         O  0.21029429  0.43801561  0.24734042    -0.72200
V37         V  0.25749222  0.99755352  0.25123897     1.35200
V38         V  0.21177831  0.47508936  0.24757332     1.35200
C39         C  0.23357463  0.43688264  0.25013427     0.77200
C40         C  0.23517278  0.03549942  0.24870972     0.77300
C41         C  0.22721181  0.98396890  0.28169183     0.77100
C42         C  0.24281802  0.98917248  0.21718355     0.77100
O43         O  0.23193060  0.27106898  0.25049771    -0.72000
O44         O  0.23343959  0.19882445  0.24766256    -0.72300
O45         O  0.23149609  0.23191170  0.27323208    -0.72100
O46         O  0.23333647  0.23718634  0.22490124    -0.72100
O47         O  0.28136958  0.26128315  0.22539980    -0.72100
O48         O  0.27950655  0.25748714  0.27420642    -0.72100
O49         O  0.28144409  0.22357172  0.24873101    -0.72000
O50         O  0.27996087  0.29545830  0.25080829    -0.72200
V51         V  0.23349936  0.23529968  0.24909403     1.35200
V52         V  0.27964740  0.25900512  0.24977379     1.35200
C53         C  0.25585027  0.29569353  0.25105309     0.77200
C54         C  0.25776452  0.19890788  0.24778088     0.77300
C55         C  0.25500792  0.24350903  0.28199174     0.77100
C56         C  0.25753378  0.24956873  0.21683094     0.77100
O57         O  0.00173538  0.03153398  0.44114741    -0.72000
O58         O  0.00157633  0.02850691  0.39228074    -0.72300
O59         O  0.46371526  0.02693749  0.41634823    -0.72100
O60         O  0.03943309  0.03354241  0.41700954    -0.72100
O61         O  0.01896164  0.48566871  0.41734656    -0.72100
O62         O  0.44303121  0.47913731  0.41805375    -0.72100
O63         O  0.47945329  0.48054306  0.39347819    -0.72000
O64         O  0.48212681  0.48378643  0.44194974    -0.72200
V65         V  0.00118670  0.02922019  0.41672710     1.35200
V66         V  0.48131513  0.48323523  0.41769256     1.35200
C67         C  0.99215911  0.50805117  0.44989075     0.77200
C68         C  0.99030351  0.00383927  0.38457514     0.77300
C69         C  0.44041467  0.00194208  0.41716197     0.77100
C70         C  0.04220018  0.01083251  0.41707894     0.77100
O71         O  0.48606906  0.26940596  0.41719809    -0.72000
O72         O  0.05490305  0.26241728  0.41616239    -0.72300
O73         O  0.02073884  0.26757729  0.39222942    -0.72100
O74         O  0.01998400  0.26365561  0.44109760    -0.72100
O75         O  0.49412402  0.21575136  0.43948304    -0.72100
O76         O  0.49168802  0.21994198  0.39137130    -0.72100
O77         O  0.02764247  0.21470686  0.41378561    -0.72000
O78         O  0.45846559  0.22155936  0.41697720    -0.72200
V79         V  0.01989831  0.26487774  0.41665295     1.35200
V80         V  0.49352661  0.21894123  0.41543805     1.35200
C81         C  0.46052461  0.24678625  0.41741225     0.77200
C82         C  0.05312690  0.23748217  0.41457001     0.77300
C83         C  0.50600258  0.24417502  0.38349982     0.77100
C84         C  0.50708308  0.23878757  0.44858543     0.77100
O85         O  0.19399832  0.47980831  0.41717311    -0.72000
O86         O  0.27051059  0.48829080  0.41547470    -0.72300
O87         O  0.23457410  0.48663984  0.44062343    -0.72100
O88         O  0.22986109  0.48165005  0.39190573    -0.72100
O89         O  0.25212823  0.02963758  0.39064413    -0.72100
O90         O  0.25195628  0.03402888  0.43897406    -0.72100
O91         O  0.29030972  0.03609766  0.41541332    -0.72000
O92         O  0.21348207  0.02732416  0.41425503    -0.72200
V93         V  0.23261523  0.48498527  0.41625233     1.35200
V94         V  0.25153667  0.03083431  0.41483361     1.35200
C95         C  0.19063497  0.00209684  0.41592099     0.77200
C96         C  0.29350899  0.01360990  0.41546123     0.77300
C97         C  0.24369691  0.51125575  0.44810272     0.77100
C98         C  0.24095201  0.00501821  0.38300291     0.77100
O99         O  0.23778809  0.27289101  0.41742079    -0.72000
O100        O  0.30601561  0.26427389  0.41870168    -0.72300
O101        O  0.27537635  0.27247493  0.39384626    -0.72100
O102        O  0.26876297  0.26490893  0.44225523    -0.72100
O103        O  0.24114710  0.21729447  0.43963183    -0.72100
O104        O  0.24694488  0.22495735  0.39114103    -0.72100
O105        O  0.27801490  0.21673255  0.41585389    -0.72000
O106        O  0.21001150  0.22525748  0.41492176    -0.72200
V107        V  0.27142498  0.26772545  0.41799488     1.35200
V108        V  0.24458070  0.22200062  0.41543958     1.35200
C109        C  0.21219162  0.25043531  0.41604781     0.77200
C110        C  0.30363051  0.23898018  0.41745561     0.77300
C111        C  0.26240359  0.25003939  0.38421604     0.77100
C112        C  0.25392427  0.23981148  0.44924134     0.77100
O113        O  0.49399324  0.50493230  0.05880735    -0.72000
O114        O  0.48910669  0.50207692  0.10703855    -0.72300
O115        O  0.49208932  0.04036005  0.08304992    -0.72100
O116        O  0.49171446  0.46700928  0.08276592    -0.72100
O117        O  0.03964860  0.49109316  0.08469610    -0.72100
O118        O  0.04007953  0.06383570  0.08430900    -0.72100
O119        O  0.03704482  0.02617480  0.10892915    -0.72000
O120        O  0.04198775  0.02795770  0.06017942    -0.72200
V121        V  0.49266645  0.50407179  0.08295497     1.35200
V122        V  0.03876198  0.02686605  0.08451833     1.35200
C123        C  0.01861674  0.01654227  0.05121032     0.77200
C124        C  0.01204366  0.01336181  0.11627244     0.77300
C125        C  0.01631638  0.06468724  0.08356411     0.77100
C126        C  0.01580583  0.46666185  0.08364314     0.77100
O127        O  0.47121542  0.20712133  0.08395421    -0.72000
O128        O  0.47124646  0.27962371  0.08531610    -0.72300
O129        O  0.46667531  0.24236021  0.06035621    -0.72100
O130        O  0.47658893  0.24509036  0.10891112    -0.72100
O131        O  0.02420180  0.27029375  0.10538078    -0.72100
O132        O  0.01444053  0.26468496  0.05746414    -0.72100
O133        O  0.01876849  0.30378855  0.08127120    -0.72000
O134        O  0.01908301  0.23076427  0.08166605    -0.72200
V135        V  0.47233615  0.24396247  0.08457837     1.35200
V136        V  0.01818338  0.26691237  0.08150512     1.35200
C137        C  0.49499798  0.20638808  0.08278661     0.77200
C138        C  0.49479371  0.30405121  0.08332254     0.77300
C139        C  0.48913032  0.25310370  0.05066081     0.77100
C140        C  0.50233704  0.25859772  0.11538356     0.77100
O141        O  0.28411190  0.01019429  0.06037064    -0.72000
O142        O  0.27334188  0.00667971  0.10879120    -0.72300
O143        O  0.27855022  0.47213766  0.08508169    -0.72100
O144        O  0.27942602  0.04520751  0.08410461    -0.72100
O145        O  0.23175863  0.02190694  0.08062845    -0.72100
O146        O  0.23089054  0.44836859  0.08155557    -0.72100
O147        O  0.22572912  0.48333565  0.10499182    -0.72000
O148        O  0.23638188  0.48694177  0.05711223    -0.72200
V149        V  0.27794596  0.00812132  0.08452638     1.35200
V150        V  0.23214033  0.48557499  0.08113309     1.35200
C151        C  0.26185424  0.99905119  0.05050058     0.77200
C152        C  0.24752764  0.99449737  0.11509852     0.77300
C153        C  0.25473682  0.44778680  0.08339719     0.77100
C154        C  0.25581692  0.04614225  0.08231877     0.77100
O155        O  0.20859350  0.25980374  0.08318131    -0.72000
O156        O  0.20901883  0.18740357  0.08188837    -0.72300
O157        O  0.20757928  0.22197253  0.10696656    -0.72100
O158        O  0.21065928  0.22557249  0.05816508    -0.72100
O159        O  0.25864248  0.24746154  0.05957279    -0.72100
O160        O  0.25554645  0.24791786  0.10780278    -0.72100
O161        O  0.25689978  0.21119232  0.08420229    -0.72000
O162        O  0.25663093  0.28417981  0.08306129    -0.72200
V163        V  0.20986204  0.22414153  0.08258377     1.35200
V164        V  0.25598877  0.24726922  0.08364196     1.35200
C165        C  0.23242400  0.28437962  0.08308220     0.77200
C166        C  0.23288647  0.18678898  0.08295949     0.77300
C167        C  0.23123234  0.23460763  0.11569722     0.77100
C168        C  0.23540711  0.23663941  0.05062682     0.77100
O169        O  0.44580989  0.48024032  0.91714137    -0.72000
O170        O  0.01478806  0.05670441  0.91891898    -0.72300
O171        O  0.48080970  0.02020509  0.89381499    -0.72100
O172        O  0.47941080  0.01677527  0.94216919    -0.72100
O173        O  0.00925583  0.49904168  0.94175227    -0.72100
O174        O  0.00664774  0.49805884  0.89301379    -0.72100
O175        O  0.04218613  0.03633824  0.91695621    -0.72000
O176        O  0.47372122  0.46033340  0.91781111    -0.72200
V177        V  0.48075346  0.01812051  0.91798770     1.35200
V178        V  0.00739446  0.49879884  0.91739620     1.35200
C179        C  0.44807548  0.45717931  0.91737937     0.77200
C180        C  0.04032212  0.05949877  0.91810576     0.77300
C181        C  0.99349719  0.50935071  0.88510356     0.77100
C182        C  0.99442962  0.50782866  0.95023534     0.77100
O183        O  0.47396192  0.20154842  0.91829370    -0.72000
O184        O  0.05074888  0.27015433  0.91626982    -0.72300
O185        O  0.01364467  0.23848150  0.94140029    -0.72100
O186        O  0.01177107  0.23319535  0.89316410    -0.72100
O187        O  0.49306964  0.26211949  0.89170188    -0.72100
O188        O  0.49178696  0.26463571  0.94048602    -0.72100
O189        O  0.03041280  0.29768940  0.91599792    -0.72000
O190        O  0.45430020  0.22955500  0.91616853    -0.72200
V191        V  0.01207254  0.23631896  0.91726579     1.35200
V192        V  0.49278207  0.26296845  0.91610631     1.35200
C193        C  0.45098066  0.20395100  0.91740367     0.77200
C194        C  0.05358635  0.29572061  0.91595519     0.77300
C195        C  0.50315702  0.25238200  0.94919859     0.77100
C196        C  0.50266622  0.24708991  0.88413941     0.77100
O197        O  0.22168365  0.45429397  0.91513017    -0.72000
O198        O  0.29732468  0.02303668  0.91626591    -0.72300
O199        O  0.25983356  0.48678742  0.94006727    -0.72100
O200        O  0.25917112  0.49123864  0.89130652    -0.72100
O201        O  0.23931474  0.01909604  0.89325208    -0.72100
O202        O  0.23802190  0.01296632  0.94140963    -0.72100
O203        O  0.27715970  0.05059386  0.91842633    -0.72000
O204        O  0.20084999  0.48134101  0.91625594    -0.72200
V205        V  0.25909124  0.48935058  0.91570711     1.35200
V206        V  0.23928915  0.01550934  0.91730651     1.35200
C207        C  0.19832860  0.45592086  0.91550383     0.77200
C208        C  0.30031584  0.04849350  0.91764148     0.77300
C209        C  0.24853901  0.49890279  0.94897660     0.77100
C210        C  0.24915588  0.50612056  0.88399507     0.77100
O211        O  0.22829199  0.26615503  0.93977863    -0.72000
O212        O  0.23581922  0.26417415  0.89146967    -0.72300
O213        O  0.19814347  0.22738606  0.91510432    -0.72100
O214        O  0.26616847  0.30369860  0.91623757    -0.72100
O215        O  0.29417796  0.28416586  0.91913350    -0.72100
O216        O  0.22564460  0.20732803  0.91830033    -0.72100
O217        O  0.26335888  0.24418251  0.89471084    -0.72000
O218        O  0.25646447  0.24681586  0.94277759    -0.72200
V219        V  0.23273614  0.26505394  0.91568368     1.35200
V220        V  0.25943487  0.24607220  0.91868259     1.35200
C221        C  0.24055537  0.25605805  0.94949567     0.77200
C222        C  0.25052667  0.25338832  0.88485150     0.77300
C223        C  0.20013393  0.20436330  0.91670871     0.77100
C224        C  0.29179796  0.30708646  0.91778682     0.77100
O225        O  0.46929546  0.45793980  0.55945916    -0.72000
O226        O  0.47246306  0.45654746  0.60803925    -0.72300
O227        O  0.43436441  0.45731138  0.58494364    -0.72100
O228        O  0.00700998  0.45709095  0.58254740    -0.72100
O229        O  0.03122496  0.00505406  0.58402170    -0.72100
O230        O  0.45830582  0.00532445  0.58437831    -0.72100
O231        O  0.99465211  0.00455552  0.60858539    -0.72000
O232        O  0.99482467  0.00592536  0.55984515    -0.72200
V233        V  0.47120563  0.45816815  0.58375907     1.35200
V234        V  0.99430545  0.00430432  0.58420788     1.35200
C235        C  0.98187824  0.48212496  0.55131179     0.77200
C236        C  0.98401428  0.48031170  0.61661205     0.77300
C237        C  0.43383100  0.48130148  0.58481311     0.77100
C238        C  0.03155369  0.48098011  0.58306075     0.77100
O239        O  0.46056289  0.21421596  0.58170492    -0.72000
O240        O  0.03765412  0.22334106  0.58236244    -0.72300
O241        O  0.49727590  0.21494873  0.60627795    -0.72100
O242        O  0.50107887  0.22264853  0.55775535    -0.72100
O243        O  0.02143102  0.27030259  0.56039262    -0.72100
O244        O  0.01517815  0.26237118  0.60863427    -0.72100
O245        O  0.05676419  0.27077770  0.58553094    -0.72000
O246        O  0.48014560  0.26190389  0.58350472    -0.72200
V247        V  0.49950263  0.21967085  0.58206120     1.35200
V248        V  0.01801509  0.26537705  0.58447078     1.35200
C249        C  0.45726060  0.23664026  0.58236519     0.77200
C250        C  0.06036711  0.24862314  0.58423053     0.77300
C251        C  0.50535633  0.23742711  0.61571830     0.77100
C252        C  0.51197708  0.24786435  0.55079370     0.77100
O253        O  0.19634096  0.48141707  0.58362324    -0.72000
O254        O  0.26963990  0.48189581  0.58402136    -0.72300
O255        O  0.23455226  0.48518435  0.60800417    -0.72100
O256        O  0.23143498  0.47792017  0.55964211    -0.72100
O257        O  0.25548828  0.02577432  0.55726410    -0.72100
O258        O  0.25747703  0.03306637  0.60577743    -0.72100
O259        O  0.29327104  0.02979398  0.58205579    -0.72000
O260        O  0.22016497  0.02922892  0.58101670    -0.72200
V261        V  0.23344827  0.48254017  0.58378032     1.35200
V262        V  0.25618483  0.02853263  0.58156084     1.35200
C263        C  0.19576748  0.50531461  0.58224739     0.77200
C264        C  0.29401808  0.50597699  0.58318513     0.77300
C265        C  0.24627921  0.51027779  0.61516294     0.77100
C266        C  0.24287864  0.50056589  0.55016899     0.77100
O267        O  0.27143241  0.27289259  0.56096391    -0.72000
O268        O  0.27058624  0.26660393  0.60931946    -0.72300
O269        O  0.30893917  0.27293160  0.58450374    -0.72100
O270        O  0.23284735  0.26620244  0.58576373    -0.72100
O271        O  0.21254604  0.21838337  0.58468186    -0.72100
O272        O  0.28821678  0.22533454  0.58130194    -0.72100
O273        O  0.25198020  0.21905349  0.60723894    -0.72000
O274        O  0.24917433  0.22505398  0.55871741    -0.72200
V275        V  0.27055847  0.26873932  0.58509985     1.35200
V276        V  0.25083526  0.22287420  0.58302296     1.35200
C277        C  0.26034462  0.25013017  0.55154264     0.77200
C278        C  0.26157079  0.24190025  0.61655679     0.77300
C279        C  0.31151852  0.25021986  0.58258134     0.77100
C280        C  0.20964607  0.24100203  0.58554696     0.77100
O281        O  0.44911284  0.47283367  0.75237720    -0.72000
O282        O  0.01783779  0.04895675  0.75127049    -0.72300
O283        O  0.48095664  0.01145428  0.72756581    -0.72100
O284        O  0.48614433  0.01042657  0.77602025    -0.72100
O285        O  0.01462656  0.49129479  0.77395749    -0.72100
O286        O  0.00693576  0.48954593  0.72549387    -0.72100
O287        O  0.04523440  0.02872302  0.74845395    -0.72000
O288        O  0.47660917  0.45249446  0.75115718    -0.72200
V289        V  0.48403887  0.01050650  0.75176421     1.35200
V290        V  0.01036183  0.49094527  0.74977959     1.35200
C291        C  0.45112063  0.44965650  0.75219647     0.77200
C292        C  0.04327807  0.05188918  0.74962681     0.77300
C293        C  0.49281441  0.50041411  0.71825375     0.77100
C294        C  0.50131409  0.50076145  0.78328171     0.77100
O295        O  0.44788527  0.23042681  0.74804062    -0.72000
O296        O  0.02440818  0.29955215  0.75029734    -0.72300
O297        O  0.48843236  0.26594386  0.72503068    -0.72100
O298        O  0.48360814  0.26454225  0.77326707    -0.72100
O299        O  0.00513217  0.23814898  0.77454408    -0.72100
O300        O  0.00711522  0.23694640  0.72571393    -0.72100
O301        O  0.04423857  0.27156715  0.75045322    -0.72000
O302        O  0.46839268  0.20314520  0.74984116    -0.72200
V303        V  0.48645415  0.26456342  0.74917090     1.35200
V304        V  0.00583278  0.23798933  0.75012045     1.35200
C305        C  0.44518814  0.20491285  0.74870670     0.77200
C306        C  0.04745032  0.29721165  0.75065137     0.77300
C307        C  0.99833679  0.25165396  0.71707719     0.77100
C308        C  0.99378078  0.25151058  0.78220469     0.77100
O309        O  0.20197300  0.47828734  0.75058870    -0.72000
O310        O  0.27806907  0.04626911  0.74910685    -0.72300
O311        O  0.23852130  0.01178725  0.72538905    -0.72100
O312        O  0.24213016  0.01255153  0.77426983    -0.72100
O313        O  0.26308967  0.48562938  0.77308912    -0.72100
O314        O  0.25696472  0.48256681  0.72491800    -0.72100
O315        O  0.29825641  0.01866769  0.74759138    -0.72000
O316        O  0.22148750  0.45002129  0.75048664    -0.72200
V317        V  0.24052552  0.01166042  0.74982316     1.35200
V318        V  0.25956115  0.48476721  0.74902818     1.35200
C319        C  0.19856072  0.45256424  0.75084689     0.77200
C320        C  0.30115546  0.04427457  0.74810778     0.77300
C321        C  0.24692522  0.49663075  0.71686905     0.77100
C322        C  0.25379471  0.49951609  0.78196738     0.77100
O323        O  0.29519126  0.27922072  0.75211414    -0.72000
O324        O  0.22657106  0.20297974  0.75084090    -0.72300
O325        O  0.26356919  0.24076709  0.72708628    -0.72100
O326        O  0.25815530  0.24160116  0.77574170    -0.72100
O327        O  0.22940151  0.26038355  0.77339802    -0.72100
O328        O  0.23752268  0.26264904  0.72528699    -0.72100
O329        O  0.19908705  0.22309010  0.74789458    -0.72000
O330        O  0.26753774  0.29938440  0.75089351    -0.72200
V331        V  0.26032730  0.24148111  0.75139559     1.35200
V332        V  0.23387400  0.26089740  0.74938923     1.35200
C333        C  0.29308425  0.30234189  0.75187270     0.77200
C334        C  0.20109031  0.19997251  0.74919403     0.77300
C335        C  0.25209493  0.25243422  0.71794826     0.77100
C336        C  0.24280715  0.25124076  0.78284110     0.77100
C337        C  0.33055596  0.07145670  0.74777741    -0.05500
C338        C  0.35667828  0.06991418  0.74798196    -0.05400
C339        C  0.38432524  0.09579512  0.74812156    -0.23600
C340        C  0.38629549  0.12363260  0.74803489     0.18600
C341        C  0.36017234  0.12542686  0.74773522     0.15800
C342        C  0.33255187  0.09939264  0.74761749    -0.18600
C343        C  0.36210830  0.15323702  0.74761996    -0.20400
C344        C  0.38972182  0.17911882  0.74785035    -0.13000
C345        C  0.41586453  0.17762516  0.74823543     0.03700
C346        C  0.41391867  0.14969879  0.74829365    -0.25100
H347        H  0.35573721  0.04870822  0.74815869     0.08700
H348        H  0.40417110  0.09403761  0.74835301     0.12300
H349        H  0.31258130  0.10094714  0.74746107     0.12300
H350        H  0.34225101  0.15497518  0.74738564     0.12000
H351        H  0.39061296  0.20030288  0.74780446     0.12600
H352        H  0.43390928  0.14818623  0.74856386     0.14500
C353        C  0.16838624  0.42638386  0.75137513    -0.05500
C354        C  0.14348855  0.43016912  0.75129447    -0.05400
C355        C  0.11486517  0.40574469  0.75135096    -0.23600
C356        C  0.11051902  0.37699586  0.75148427     0.18600
C357        C  0.13536486  0.37290074  0.75173165     0.15800
C358        C  0.16409990  0.39757100  0.75168737    -0.18600
C359        C  0.13105004  0.34417390  0.75189008    -0.20400
C360        C  0.10246100  0.31974575  0.75163733    -0.13000
C361        C  0.07754890  0.32348986  0.75122842     0.03700
C362        C  0.08178313  0.35229658  0.75125176    -0.25100
H363        H  0.14610722  0.45210637  0.75106964     0.08700
H364        H  0.09613260  0.40935997  0.75118841     0.12300
H365        H  0.18306757  0.39431644  0.75177078     0.12300
H366        H  0.14979125  0.34057453  0.75211708     0.12000
H367        H  0.09988838  0.29782403  0.75168084     0.12600
H368        H  0.06279648  0.35551449  0.75097690     0.14500
C369        C  0.42436105  0.42002386  0.75313866    -0.05500
C370        C  0.42693041  0.39458144  0.75488150    -0.05400
C371        C  0.40171239  0.36650378  0.75543555    -0.23600
C372        C  0.37346944  0.36335310  0.75414793     0.18600
C373        C  0.37061924  0.38880883  0.75258832     0.15800
C374        C  0.39603539  0.41694442  0.75217578    -0.18600
C375        C  0.34239650  0.38567603  0.75125709    -0.20400
C376        C  0.31721858  0.35756493  0.75121852    -0.13000
C377        C  0.31978490  0.33206558  0.75253538     0.03700
C378        C  0.34806302  0.33517896  0.75416275    -0.25100
H379        H  0.44848509  0.39636818  0.75577215     0.08700
H380        H  0.40431625  0.34724284  0.75670181     0.12300
H381        H  0.39374065  0.43638961  0.75085569     0.12300
H382        H  0.33979896  0.40495254  0.75007761     0.12000
H383        H  0.29570996  0.35579138  0.74998095     0.12600
H384        H  0.35035755  0.31570270  0.75524404     0.14500
C385        C  0.06997789  0.08167166  0.74920151    -0.05500
C386        C  0.06718208  0.10711291  0.74868093    -0.05400
C387        C  0.09225585  0.13531447  0.74840953    -0.23600
C388        C  0.12062491  0.13862887  0.74873892     0.18600
C389        C  0.12371665  0.11322090  0.74934742     0.15800
C390        C  0.09841839  0.08494280  0.74951098    -0.18600
C391        C  0.15207524  0.11653306  0.74983971    -0.20400
C392        C  0.17715070  0.14473080  0.74971449    -0.13000
C393        C  0.17437700  0.17017463  0.74902932     0.03700
C394        C  0.14593404  0.16690482  0.74853413    -0.25100
H395        H  0.04554567  0.10522849  0.74844060     0.08700
H396        H  0.08944663  0.15453061  0.74797637     0.12300
H397        H  0.10089677  0.06552387  0.75000531     0.12300
H398        H  0.15487519  0.09731634  0.75036078     0.12000
H399        H  0.19877355  0.14660340  0.75016431     0.12600
H400        H  0.14345551  0.18632712  0.74810756     0.14500
C401        C  0.26191078  0.24001968  0.63544049    -0.05500
C402        C  0.26154625  0.21584434  0.64360615    -0.05400
C403        C  0.26119974  0.21404003  0.66150094    -0.23600
C404        C  0.26049490  0.23604202  0.67151246     0.18600
C405        C  0.26086709  0.26040877  0.66334034     0.15800
C406        C  0.26210338  0.26248172  0.64545020    -0.18600
C407        C  0.25920337  0.28198627  0.67315271    -0.20400
C408        C  0.25641294  0.27913009  0.69087617    -0.13000
C409        C  0.25598443  0.25507224  0.69920188     0.03700
C410        C  0.25863559  0.23380744  0.68948156    -0.25100
H411        H  0.26161500  0.19838158  0.63614159     0.08700
H412        H  0.26090658  0.19517570  0.66748965     0.12300
H413        H  0.26221629  0.28115306  0.63929108     0.12300
H414        H  0.25945470  0.30078330  0.66709243     0.12000
H415        H  0.25469183  0.29590301  0.69813821     0.12600
H416        H  0.25816824  0.21510634  0.69581950     0.14500
C417        C  0.24670704  0.51264977  0.63402521    -0.05500
C418        C  0.24943885  0.03799912  0.64207969    -0.05400
C419        C  0.24900399  0.03970210  0.65995204    -0.23600
C420        C  0.24639965  0.01630206  0.67006953     0.18600
C421        C  0.24418647  0.49097237  0.66201892     0.15800
C422        C  0.24398077  0.48916988  0.64411915    -0.18600
C423        C  0.24249424  0.46790970  0.67198884    -0.20400
C424        C  0.24325600  0.46996039  0.68978028    -0.13000
C425        C  0.24513861  0.49482566  0.69799584     0.03700
C426        C  0.24639230  0.01788499  0.68805685    -0.25100
H427        H  0.25145294  0.05632037  0.63454025     0.08700
H428        H  0.25087043  0.05936634  0.66585198     0.12300
H429        H  0.24213393  0.46962541  0.63803485     0.12300
H430        H  0.24090397  0.44840254  0.66602664     0.12000
H431        H  0.24221974  0.45190959  0.69716721     0.12600
H432        H  0.24819340  0.03729321  0.69428592     0.14500
C433        C  0.42757956  0.23376559  0.58185182    -0.05500
C434        C  0.40180426  0.20584242  0.58100450    -0.05400
C435        C  0.37386583  0.20345736  0.58070714    -0.23600
C436        C  0.37126848  0.22895896  0.58126873     0.18600
C437        C  0.39707434  0.25710007  0.58202993     0.15800
C438        C  0.42495403  0.25930208  0.58229378    -0.18600
C439        C  0.39461375  0.28263432  0.58263365    -0.20400
C440        C  0.36679504  0.28036407  0.58267061    -0.13000
C441        C  0.34093514  0.25252712  0.58204306     0.03700
C442        C  0.34336416  0.22685062  0.58122415    -0.25100
H443        H  0.40323281  0.18584316  0.58063482     0.08700
H444        H  0.35430826  0.18168514  0.58011638     0.12300
H445        H  0.44463612  0.28099371  0.58292299     0.12300
H446        H  0.41421600  0.30437688  0.58319459     0.12000
H447        H  0.36553418  0.30044277  0.58327199     0.12600
H448        H  0.32358074  0.20522008  0.58074723     0.14500
C449        C  0.09037634  0.25225218  0.58490118    -0.05500
C450        C  0.11556412  0.28066928  0.58539461    -0.05400
C451        C  0.14396142  0.28422991  0.58588538    -0.23600
C452        C  0.14771364  0.25942880  0.58594152     0.18600
C453        C  0.12252304  0.23075997  0.58561231     0.15800
C454        C  0.09408481  0.22735686  0.58507018    -0.18600
C455        C  0.12618302  0.20593454  0.58572971    -0.20400
C456        C  0.15451188  0.20941739  0.58593248    -0.13000
C457        C  0.17978563  0.23778854  0.58603232     0.03700
C458        C  0.17618296  0.26277730  0.58617678    -0.25100
H459        H  0.11333601  0.30022248  0.58529750     0.08700
H460        H  0.16298165  0.30638447  0.58615541     0.12300
H461        H  0.07486342  0.20531453  0.58477231     0.12300
H462        H  0.10712990  0.18379542  0.58553762     0.12000
H463        H  0.15661016  0.18978925  0.58586469     0.12600
H464        H  0.19546369  0.28478320  0.58627545     0.14500
C465        C  0.50348168  0.23495220  0.63456099    -0.05500
C466        C  0.00338988  0.21112793  0.64298881    -0.05400
C467        C  0.00285657  0.20970458  0.66088675    -0.23600
C468        C  0.00188730  0.23183060  0.67062367     0.18600
C469        C  0.50119918  0.25543814  0.66217350     0.15800
C470        C  0.50229248  0.25698436  0.64427424    -0.18600
C471        C  0.49941973  0.27717707  0.67174594    -0.20400
C472        C  0.49841546  0.27566719  0.68955043    -0.13000
C473        C  0.99960172  0.25264491  0.69817705     0.03700
C474        C  0.00144635  0.23075992  0.68861876    -0.25100
H475        H  0.00432445  0.19391456  0.63573977     0.08700
H476        H  0.00321928  0.19133547  0.66710237     0.12300
H477        H  0.50200129  0.27527823  0.63788334     0.12300
H478        H  0.49872319  0.29532793  0.66546271     0.12000
H479        H  0.49699809  0.29279040  0.69661034     0.12600
H480        H  0.00205337  0.21274631  0.69514344     0.14500
C481        C  0.40527007  0.48113422  0.58499607    -0.05500
C482        C  0.37834865  0.45416314  0.58553235    -0.05400
C483        C  0.35129962  0.45366773  0.58537113    -0.23600
C484        C  0.35056584  0.48014166  0.58464811     0.18600
C485        C  0.37744133  0.00742722  0.58416944     0.15800
C486        C  0.40458992  0.00776711  0.58437476    -0.18600
C487        C  0.37667277  0.03389222  0.58341405    -0.20400
C488        C  0.34958573  0.03335068  0.58308781    -0.13000
C489        C  0.32267970  0.50634525  0.58353924     0.03700
C490        C  0.32341693  0.47976593  0.58434703    -0.25100
H491        H  0.37816130  0.43332776  0.58601245     0.08700
H492        H  0.33093094  0.43253396  0.58575086     0.12300
H493        H  0.42514024  0.02874491  0.58394179     0.12300
H494        H  0.39703145  0.05503586  0.58304114     0.12000
H495        H  0.34972333  0.05415441  0.58248660     0.12600
H496        H  0.30288537  0.45876376  0.58470001     0.14500
C497        C  0.05980654  0.48060451  0.58260972    -0.05500
C498        C  0.05960947  0.45353934  0.58220569    -0.05400
C499        C  0.08610235  0.45292275  0.58198815    -0.23600
C500        C  0.11336671  0.47936876  0.58213785     0.18600
C501        C  0.11386490  0.00671718  0.58241121     0.15800
C502        C  0.08714443  0.00717049  0.58266720    -0.18600
C503        C  0.14110346  0.03317197  0.58246661    -0.20400
C504        C  0.16759433  0.03258364  0.58231894    -0.13000
C505        C  0.16743744  0.50553809  0.58217324     0.03700
C506        C  0.14011570  0.47893730  0.58206060    -0.25100
H507        H  0.03890506  0.43273789  0.58213379     0.08700
H508        H  0.08525105  0.43173980  0.58174243     0.12300
H509        H  0.08766599  0.02820419  0.58293601     0.12300
H510        H  0.14193788  0.05434836  0.58265622     0.12000
H511        H  0.18827920  0.05340432  0.58242516     0.12600
H512        H  0.13963762  0.45792215  0.58190139     0.14500
C513        C  0.49034949  0.50042494  0.69938986    -0.05500
C514        C  0.48652697  0.52225334  0.69120502    -0.05400
C515        C  0.48494719  0.52295118  0.67336576    -0.23600
C516        C  0.48647625  0.50140235  0.66338382     0.18600
C517        C  0.98942292  0.97879706  0.67151400     0.15800
C518        C  0.99180970  0.97871861  0.68943694    -0.18600
C519        C  0.98981075  0.95660262  0.66156739    -0.20400
C520        C  0.98747657  0.95688305  0.64375012    -0.13000
C521        C  0.98541115  0.47971106  0.63551118     0.03700
C522        C  0.48499464  0.50199836  0.64542983    -0.25100
H523        H  0.48532303  0.53917202  0.69861683     0.08700
H524        H  0.48245339  0.54030505  0.66738232     0.12300
H525        H  0.99435349  0.96155087  0.69565275     0.12300
H526        H  0.99184684  0.93898719  0.66756456     0.12000
H527        H  0.98790236  0.93953298  0.63635345     0.12600
H528        H  0.48307290  0.51951209  0.63918764     0.14500
C529        C  0.24081597  0.25252341  0.80166441    -0.05500
C530        C  0.22439130  0.26446470  0.80893716    -0.05400
C531        C  0.22313759  0.26702954  0.82662342    -0.23600
C532        C  0.23826404  0.25768401  0.83742050     0.18600
C533        C  0.25464019  0.24535234  0.83032198     0.15800
C534        C  0.25580256  0.24281571  0.81247781    -0.18600
C535        C  0.26967611  0.23595186  0.84121188    -0.20400
C536        C  0.26851353  0.23878149  0.85893548    -0.13000
C537        C  0.25231944  0.25108669  0.86608922     0.03700
C538        C  0.23725199  0.26050805  0.85520052    -0.25100
H539        H  0.21265038  0.27213772  0.80092701     0.08700
H540        H  0.21044166  0.27647856  0.83185046     0.12300
H541        H  0.26854378  0.23357073  0.80703729     0.12300
H542        H  0.28231614  0.22640778  0.83603293     0.12000
H543        H  0.28023957  0.23123173  0.86705149     0.12600
H544        H  0.22460107  0.26992929  0.86054614     0.14500
C545        C  0.24852650  0.50830382  0.86513229    -0.05500
C546        C  0.23317462  0.02111902  0.85747288    -0.05400
C547        C  0.23164581  0.02262880  0.83969128    -0.23600
C548        C  0.24550214  0.01141432  0.82919017     0.18600
C549        C  0.26144206  0.49895998  0.83675410     0.15800
C550        C  0.26284772  0.49746897  0.85464515    -0.18600
C551        C  0.27540193  0.48784215  0.82628889    -0.20400
C552        C  0.27303706  0.48839050  0.80853073    -0.13000
C553        C  0.25678331  0.50019312  0.80083039     0.03700
C554        C  0.24336331  0.01207044  0.81127958    -0.25100
H555        H  0.22196644  0.02969370  0.86524644     0.08700
H556        H  0.21939082  0.03232382  0.83416151     0.12300
H557        H  0.27491457  0.48772355  0.86038112     0.12300
H558        H  0.28787635  0.47839689  0.83183445     0.12000
H559        H  0.28386440  0.47935044  0.80080218     0.12600
H560        H  0.23087697  0.02133473  0.80551601     0.14500
C561        C  0.42085457  0.17775650  0.91771513    -0.05500
C562        C  0.39592166  0.18144570  0.91696937    -0.05400
C563        C  0.36733969  0.15697841  0.91704209    -0.23600
C564        C  0.36309715  0.12830001  0.91782453     0.18600
C565        C  0.38799141  0.12431928  0.91862371     0.15800
C566        C  0.41667129  0.14902759  0.91860521    -0.18600
C567        C  0.38379166  0.09566273  0.91931970    -0.20400
C568        C  0.35525789  0.07117995  0.91908752    -0.13000
C569        C  0.33031119  0.07482154  0.91823221     0.03700
C570        C  0.33441635  0.10355131  0.91770156    -0.25100
H571        H  0.39848113  0.20333714  0.91628585     0.08700
H572        H  0.34856942  0.16049883  0.91641399     0.12300
H573        H  0.43567688  0.14586546  0.91917342     0.12300
H574        H  0.40257328  0.09216090  0.91995062     0.12000
H575        H  0.35274895  0.04929462  0.91955987     0.12600
H576        H  0.31538406  0.10665605  0.91700392     0.14500
C577        C  0.08306437  0.32280794  0.91558435    -0.05500
C578        C  0.10906797  0.32103046  0.91526872    -0.05400
C579        C  0.13682842  0.34676452  0.91501392    -0.23600
C580        C  0.13904992  0.37470668  0.91510039     0.18600
C581        C  0.11304005  0.37672437  0.91538691     0.15800
C582        C  0.08529705  0.35083143  0.91560416    -0.18600
C583        C  0.11520145  0.40461906  0.91552137    -0.20400
C584        C  0.14291067  0.43035725  0.91546412    -0.13000
C585        C  0.16895809  0.42866704  0.91523279     0.03700
C586        C  0.16680515  0.40065752  0.91499182    -0.25100
H587        H  0.10795442  0.29974140  0.91523595     0.08700
H588        H  0.15656064  0.34481014  0.91479610     0.12300
H589        H  0.06542854  0.35256063  0.91585285     0.12300
H590        H  0.09544849  0.40653834  0.91573950     0.12000
H591        H  0.14394532  0.45160725  0.91565791     0.12600
H592        H  0.18671568  0.39900103  0.91483376     0.14500
C593        C  0.50360086  0.24574783  0.86525601    -0.05500
C594        C  0.01894040  0.23312456  0.85736949    -0.05400
C595        C  0.02009361  0.23167473  0.83957227    -0.23600
C596        C  0.00577701  0.24266508  0.82928793     0.18600
C597        C  0.49027537  0.25540185  0.83707041     0.15800
C598        C  0.48937209  0.25696667  0.85498213    -0.18600
C599        C  0.47591741  0.26635030  0.82679735    -0.20400
C600        C  0.47700292  0.26484468  0.80900560    -0.13000
C601        C  0.49241625  0.25231114  0.80110036     0.03700
C602        C  0.00672541  0.24116059  0.81136931    -0.25100
H603        H  0.03023849  0.22445063  0.86498088     0.08700
H604        H  0.03214506  0.22190574  0.83386034     0.12300
H605        H  0.47744841  0.26671299  0.86090148     0.12300
H606        H  0.46388607  0.27613704  0.83251466     0.12000
H607        H  0.46572611  0.27356381  0.80141362     0.12600
H608        H  0.01874784  0.23152515  0.80544565     0.14500
C609        C  0.42161374  0.42719450  0.91716258    -0.05500
C610        C  0.42498257  0.40210219  0.91628451    -0.05400
C611        C  0.40030816  0.37365565  0.91621967    -0.23600
C612        C  0.37172630  0.36968954  0.91706649     0.18600
C613        C  0.36800329  0.39472484  0.91785925     0.15800
C614        C  0.39293899  0.42330151  0.91788818    -0.18600
C615        C  0.33938854  0.39072090  0.91863545    -0.20400
C616        C  0.31472050  0.36223138  0.91862354    -0.13000
C617        C  0.31815217  0.33715844  0.91791602     0.03700
C618        C  0.34683144  0.34111261  0.91714446    -0.25100
H619        H  0.44678767  0.40443461  0.91565113     0.08700
H620        H  0.40360259  0.35474855  0.91555096     0.12300
H621        H  0.39000757  0.44244082  0.91855596     0.12300
H622        H  0.33606895  0.40961711  0.91924458     0.12000
H623        H  0.29288654  0.35983495  0.91923031     0.12600
H624        H  0.34979907  0.32199331  0.91650531     0.14500
C625        C  0.06747797  0.08890692  0.91853701    -0.05500
C626        C  0.06589513  0.11468600  0.92133141    -0.05400
C627        C  0.09164869  0.14239897  0.92170971    -0.23600
C628        C  0.11940629  0.14479489  0.91925486     0.18600
C629        C  0.12128634  0.11900198  0.91659891     0.15800
C630        C  0.09535922  0.09128368  0.91626024    -0.18600
C631        C  0.14906801  0.12137836  0.91427441    -0.20400
C632        C  0.17479406  0.14911623  0.91446536    -0.13000
C633        C  0.17312093  0.17492050  0.91684088     0.03700
C634        C  0.14529356  0.17254822  0.91931373    -0.25100
H635        H  0.04473525  0.11343076  0.92323442     0.08700
H636        H  0.08984442  0.16196625  0.92384955     0.12300
H637        H  0.09692935  0.07157174  0.91414106     0.12300
H638        H  0.15089194  0.10179610  0.91225451     0.12000
H639        H  0.19597099  0.15041469  0.91254258     0.12600
H640        H  0.14375726  0.19230650  0.92132580     0.14500
C641        C  0.99270110  0.50994626  0.86617710    -0.05500
C642        C  0.47768948  0.52258218  0.85793975    -0.05400
C643        C  0.47655546  0.52333699  0.84013600    -0.23600
C644        C  0.49042767  0.51148809  0.83017201     0.18600
C645        C  0.00562937  0.99871145  0.83823869     0.15800
C646        C  0.00665773  0.99798749  0.85620254    -0.18600
C647        C  0.01950286  0.98690817  0.82816869    -0.20400
C648        C  0.01829399  0.98774189  0.81030558    -0.13000
C649        C  0.50313403  0.50033144  0.80218401     0.03700
C650        C  0.48926899  0.51219584  0.81226784    -0.25100
H651        H  0.46672752  0.53193152  0.86527602     0.08700
H652        H  0.46480167  0.53320636  0.83415861     0.12300
H653        H  0.01828788  0.98815603  0.86238228     0.12300
H654        H  0.03125748  0.97700367  0.83409985     0.12000
H655        H  0.02910678  0.97837877  0.80284341     0.12600
H656        H  0.47749993  0.52197919  0.80619619     0.14500
C657        C  0.23573909  0.25396167  0.96818112    -0.05500
C658        C  0.21344046  0.25807521  0.97550108    -0.05400
C659        C  0.20781633  0.25419076  0.99308812    -0.23600
C660        C  0.22462245  0.24644282  0.00365842     0.18600
C661        C  0.24729379  0.24258620  0.99637098     0.15800
C662        C  0.25252911  0.24615381  0.97874379    -0.18600
C663        C  0.26464978  0.23552993  0.00684611    -0.20400
C664        C  0.26017441  0.23310441  0.02446479    -0.13000
C665        C  0.23783855  0.23698138  0.03188076     0.03700
C666        C  0.21965485  0.24307611  0.02140510    -0.25100
H667        H  0.20002286  0.26383030  0.96758662     0.08700
H668        H  0.19041312  0.25733724  0.99842035     0.12300
H669        H  0.26979489  0.24291206  0.97326042     0.12300
H670        H  0.28207227  0.23246231  0.00145729     0.12000
H671        H  0.27431857  0.22830004  0.03237369     0.12600
H672        H  0.20259931  0.24639307  0.02712500     0.14500
C673        C  0.25519373  0.41958820  0.08345776    -0.05500
C674        C  0.28241758  0.42009629  0.08388503    -0.05400
C675        C  0.28339718  0.39383057  0.08379247    -0.23600
C676        C  0.25715937  0.36644342  0.08334241     0.18600
C677        C  0.22961909  0.36557139  0.08295597     0.15800
C678        C  0.22879141  0.39212028  0.08297368    -0.18600
C679        C  0.20339066  0.33813844  0.08257534    -0.20400
C680        C  0.20442166  0.31186857  0.08260720    -0.13000
C681        C  0.23169323  0.31244933  0.08298971     0.03700
C682        C  0.25803454  0.33994426  0.08331608    -0.25100
H683        H  0.30310935  0.44090221  0.08421447     0.08700
H684        H  0.30470959  0.39495800  0.08408960     0.12300
H685        H  0.20765085  0.39137790  0.08265874     0.12300
H686        H  0.18206362  0.33697999  0.08228008     0.12000
H687        H  0.18376491  0.29102516  0.08233189     0.12600
H688        H  0.27920778  0.34075531  0.08361169     0.14500
C689        C  0.23244175  0.15815387  0.08267931    -0.05500
C690        C  0.20533232  0.13145709  0.08143439    -0.05400
C691        C  0.20451147  0.10428827  0.08103215    -0.23600
C692        C  0.23079350  0.10322545  0.08186036     0.18600
C693        C  0.25820213  0.12988166  0.08313611     0.15800
C694        C  0.25886840  0.15715628  0.08353494    -0.18600
C695        C  0.28447169  0.12877757  0.08400118    -0.20400
C696        C  0.28361234  0.10156699  0.08365133    -0.13000
C697        C  0.25648058  0.07489363  0.08238992     0.03700
C698        C  0.23010059  0.07595443  0.08146832    -0.25100
H699        H  0.18463448  0.13153426  0.08075136     0.08700
H700        H  0.18329412  0.08409899  0.08006591     0.12300
H701        H  0.27992635  0.17754508  0.08448684     0.12300
H702        H  0.30569469  0.14895529  0.08498562     0.12000
H703        H  0.30427363  0.10142766  0.08439644     0.12600
H704        H  0.20901831  0.05558621  0.08054138     0.14500
C705        C  0.24668885  0.49647431  0.96773773    -0.05500
C706        C  0.22093761  0.49248009  0.97582224    -0.05400
C707        C  0.21878965  0.49154280  0.99358367    -0.23600
C708        C  0.24269099  0.49534008  0.00360345     0.18600
C709        C  0.26893138  0.99969044  0.99566845     0.15800
C710        C  0.27058977  0.99968491  0.97768694    -0.18600
C711        C  0.29308145  0.00444940  0.00590134    -0.20400
C712        C  0.29115985  0.00480576  0.02378171    -0.13000
C713        C  0.26490189  0.49991417  0.03168215     0.03700
C714        C  0.24077351  0.49516635  0.02145300    -0.25100
H715        H  0.20233920  0.48998408  0.96832764     0.08700
H716        H  0.19858282  0.48828813  0.99948560     0.12300
H717        H  0.29066398  0.00319922  0.97146951     0.12300
H718        H  0.31345780  0.00802340  0.00008702     0.12000
H719        H  0.31000966  0.00844178  0.03142891     0.12600
H720        H  0.22048840  0.49166060  0.02739502     0.14500
C721        C  0.50494165  0.25439719  0.96799943    -0.05500
C722        C  0.02958716  0.25590135  0.97623483    -0.05400
C723        C  0.03153815  0.25670591  0.99401858    -0.23600
C724        C  0.00848431  0.25525213  0.00390841     0.18600
C725        C  0.48340238  0.25351057  0.99581170     0.15800
C726        C  0.48202807  0.25366238  0.97783139    -0.18600
C727        C  0.46000445  0.25110865  0.00587687    -0.20400
C728        C  0.46143633  0.25033038  0.02375787    -0.13000
C729        C  0.48652068  0.25252326  0.03183117     0.03700
C730        C  0.01001684  0.25513222  0.02178028    -0.25100
H731        H  0.04749642  0.25659301  0.96885444     0.08700
H732        H  0.05087475  0.25799644  0.00003748     0.12300
H733        H  0.46282087  0.25218357  0.97151834     0.12300
H734        H  0.44054547  0.24963456  0.99992695     0.12000
H735        H  0.44318360  0.24853107  0.03128022     0.12600
H736        H  0.02941253  0.25665295  0.02788213     0.14500
C737        C  0.01654364  0.43866719  0.08336660    -0.05500
C738        C  0.04389266  0.43945521  0.08269895    -0.05400
C739        C  0.04511378  0.41333621  0.08241411    -0.23600
C740        C  0.01900631  0.38586071  0.08287291     0.18600
C741        C  0.49136105  0.38474973  0.08357448     0.15800
C742        C  0.49028350  0.41113035  0.08375039    -0.18600
C743        C  0.46526775  0.35725432  0.08415129    -0.20400
C744        C  0.46653294  0.33114081  0.08408722    -0.13000
C745        C  0.49390026  0.33196722  0.08336145     0.03700
C746        C  0.02010766  0.35950601  0.08270537    -0.25100
H747        H  0.06448031  0.46035774  0.08234378     0.08700
H748        H  0.06649781  0.41464525  0.08187811     0.12300
H749        H  0.46906911  0.41020852  0.08428872     0.12300
H750        H  0.44387751  0.35592961  0.08469799     0.12000
H751        H  0.44597510  0.31022092  0.08456431     0.12600
H752        H  0.04133747  0.36045949  0.08217347     0.14500
C753        C  0.49427616  0.17759782  0.08283995    -0.05500
C754        C  0.46698355  0.15102510  0.08375096    -0.05400
C755        C  0.46581992  0.12369019  0.08399531    -0.23600
C756        C  0.49193765  0.12231026  0.08337340     0.18600
C757        C  0.01953162  0.14883422  0.08245396     0.15800
C758        C  0.02054121  0.17628655  0.08215790    -0.18600
C759        C  0.04565025  0.14742901  0.08190483    -0.20400
C760        C  0.04447359  0.12007636  0.08230867    -0.13000
C761        C  0.01715982  0.09352629  0.08321031     0.03700
C762        C  0.49090933  0.09486440  0.08369935    -0.25100
H763        H  0.44639030  0.15132359  0.08429913     0.08700
H764        H  0.44446599  0.10362277  0.08471419     0.12300
H765        H  0.04173466  0.19656559  0.08148213     0.12300
H766        H  0.06701175  0.16748769  0.08119262     0.12000
H767        H  0.06505041  0.11973425  0.08186304     0.12600
H768        H  0.46970396  0.07460239  0.08440460     0.14500
C769        C  0.01950919  0.01630092  0.03232725    -0.05500
C770        C  0.04475612  0.02031267  0.02356723    -0.05400
C771        C  0.04472901  0.01865194  0.00568855    -0.23600
C772        C  0.01960323  0.01340341  0.99629778     0.18600
C773        C  0.49434136  0.50992296  0.00504422     0.15800
C774        C  0.49436945  0.51109153  0.02293634    -0.18600
C775        C  0.46947604  0.50551478  0.99576303    -0.20400
C776        C  0.46967288  0.50481391  0.97793857    -0.13000
C777        C  0.99445710  0.50784864  0.96908838     0.03700
C778        C  0.01933561  0.01188727  0.97833894    -0.25100
H779        H  0.06431559  0.02420946  0.03055813     0.08700
H780        H  0.06435285  0.02152254  0.99921261     0.12300
H781        H  0.47482308  0.50817192  0.02955734     0.12300
H782        H  0.44997939  0.50290020  0.00228212     0.12000
H783        H  0.45029069  0.50166685  0.97103510     0.12600
H784        H  0.03867366  0.01462062  0.97156161     0.14500
C785        C  0.25166580  0.23686147  0.46815208    -0.05500
C786        C  0.23556103  0.20878772  0.47576845    -0.05400
C787        C  0.23369989  0.20577848  0.49357073    -0.23600
C788        C  0.24789720  0.23078900  0.50414699     0.18600
C789        C  0.26391781  0.25916874  0.49665857     0.15800
C790        C  0.26572335  0.26202894  0.47875049    -0.18600
C791        C  0.27799523  0.28420018  0.50721877    -0.20400
C792        C  0.27646358  0.28115987  0.52500917    -0.13000
C793        C  0.26091795  0.25302619  0.53263869     0.03700
C794        C  0.24652077  0.22788457  0.52206394    -0.25100
H795        H  0.22446808  0.18904411  0.46794681     0.08700
H796        H  0.22124909  0.18384384  0.49906558     0.12300
H797        H  0.27817321  0.28384364  0.47308851     0.12300
H798        H  0.29033761  0.30614701  0.50172262     0.12000
H799        H  0.28777421  0.30091072  0.53281216     0.12600
H800        H  0.23437202  0.20606648  0.52775112     0.14500
C801        C  0.24484234  0.51370989  0.46700680    -0.05500
C802        C  0.25434404  0.04134956  0.47479591    -0.05400
C803        C  0.25585018  0.04422712  0.49257222    -0.23600
C804        C  0.24788289  0.01951905  0.50295759     0.18600
C805        C  0.23809595  0.49154082  0.49532758     0.15800
C806        C  0.23665484  0.48880011  0.47740417    -0.18600
C807        C  0.22994008  0.46682016  0.50577757    -0.20400
C808        C  0.23146981  0.46978925  0.52358716    -0.13000
C809        C  0.24137031  0.49756049  0.53129569     0.03700
C810        C  0.24955686  0.02236691  0.52084268    -0.25100
H811        H  0.26070614  0.06089415  0.46712649     0.08700
H812        H  0.26330879  0.06582224  0.49819464     0.12300
H813        H  0.22924712  0.46735074  0.47158112     0.12300
H814        H  0.22235526  0.44518229  0.50018496     0.12000
H815        H  0.22503120  0.45031865  0.53134092     0.12600
H816        H  0.25705326  0.04387485  0.52661211     0.14500
C817        C  0.50676475  0.23612724  0.46746364    -0.05500
C818        C  0.49515537  0.20797843  0.47497223    -0.05400
C819        C  0.49407264  0.20471909  0.49271059    -0.23600
C820        C  0.50447694  0.22953642  0.50335772     0.18600
C821        C  0.01624532  0.25799276  0.49601364     0.15800
C822        C  0.01742489  0.26114404  0.47811043    -0.18600
C823        C  0.02649997  0.28276360  0.50672555    -0.20400
C824        C  0.02514056  0.27939435  0.52449909    -0.13000
C825        C  0.51352565  0.25119789  0.53193553     0.03700
C826        C  0.50320970  0.22631930  0.52122177    -0.25100
H827        H  0.48684369  0.18831390  0.46710453     0.08700
H828        H  0.48499079  0.18274208  0.49809710     0.12300
H829        H  0.02633935  0.28295067  0.47250033     0.12300
H830        H  0.03553428  0.30475076  0.50136596     0.12000
H831        H  0.03317246  0.29894345  0.53243954     0.12600
H832        H  0.49413417  0.20444029  0.52676090     0.14500
C833        C  0.43391833  0.25001892  0.41802589    -0.05500
C834        C  0.43699675  0.27837348  0.41864040    -0.05400
C835        C  0.41212964  0.28182302  0.41886197    -0.23600
C836        C  0.38366945  0.25698121  0.41844074     0.18600
C837        C  0.38024694  0.22833733  0.41792714     0.15800
C838        C  0.40536842  0.22502551  0.41776527    -0.18600
C839        C  0.35174589  0.20351316  0.41745290    -0.20400
C840        C  0.32688669  0.20702731  0.41735384    -0.13000
C841        C  0.33004585  0.23542002  0.41779093     0.03700
C842        C  0.35860099  0.26033706  0.41841166    -0.25100
H843        H  0.45871194  0.29800488  0.41887254     0.08700
H844        H  0.41517500  0.30394240  0.41926853     0.12300
H845        H  0.40267351  0.20304005  0.41729324     0.12300
H846        H  0.34867185  0.18138280  0.41707099     0.12000
H847        H  0.30513962  0.18745634  0.41690897     0.12600
H848        H  0.36136157  0.28235656  0.41873764     0.14500
C849        C  0.18535772  0.25327144  0.41590938    -0.05500
C850        C  0.18711606  0.28039550  0.41983892    -0.05400
C851        C  0.16158220  0.28276564  0.42018404    -0.23600
C852        C  0.13386305  0.25806185  0.41656327     0.18600
C853        C  0.13188254  0.23075183  0.41244955     0.15800
C854        C  0.15759172  0.22854128  0.41214928    -0.18600
C855        C  0.10418053  0.20603415  0.40884284    -0.20400
C856        C  0.07857826  0.20823125  0.40950816    -0.13000
C857        C  0.08024681  0.23521726  0.41369597     0.03700
C858        C  0.10807807  0.26014277  0.41710017    -0.25100
H859        H  0.20821258  0.29972676  0.42283118     0.08700
H860        H  0.16349796  0.30387573  0.42337473     0.12300
H861        H  0.15592911  0.20749890  0.40905043     0.12300
H862        H  0.10228870  0.18494969  0.40561008     0.12000
H863        H  0.05744889  0.18878734  0.40672910     0.12600
H864        H  0.10967931  0.28110593  0.42034847     0.14500
C865        C  0.98148460  0.48238875  0.53230418    -0.05500
C866        C  0.46846924  0.45556802  0.52315823    -0.05400
C867        C  0.46804963  0.45538315  0.50528782    -0.23600
C868        C  0.48056303  0.48202609  0.49614396     0.18600
C869        C  0.99365932  0.00918522  0.50511684     0.15800
C870        C  0.99410868  0.00921588  0.52313549    -0.18600
C871        C  0.00603954  0.03579539  0.49588165    -0.20400
C872        C  0.00546674  0.03549489  0.47795701    -0.13000
C873        C  0.99259685  0.50858968  0.46890566     0.03700
C874        C  0.48016807  0.48190405  0.47817390    -0.25100
H875        H  0.45863172  0.43460090  0.52983298     0.08700
H876        H  0.45790461  0.43434921  0.49861337     0.12300
H877        H  0.00421025  0.03008258  0.52999012     0.12300
H878        H  0.01617370  0.05685860  0.50251989     0.12000
H879        H  0.01521825  0.05635280  0.47117368     0.12600
H880        H  0.47010591  0.46094301  0.47141331     0.14500
C881        C  0.32328895  0.01669348  0.41559504    -0.05500
C882        C  0.34889636  0.04480286  0.41531128    -0.05400
C883        C  0.37699938  0.04760488  0.41557124    -0.23600
C884        C  0.37997245  0.02233824  0.41614234     0.18600
C885        C  0.35434970  0.49400365  0.41644449     0.15800
C886        C  0.32626271  0.49137421  0.41614706    -0.18600
C887        C  0.35720421  0.46870864  0.41705775    -0.20400
C888        C  0.38519392  0.47138925  0.41734519    -0.13000
C889        C  0.41087271  0.99940710  0.41700399     0.03700
C890        C  0.40807334  0.02487106  0.41641244    -0.25100
H891        H  0.34721346  0.06465854  0.41489831     0.08700
H892        H  0.39638813  0.06951803  0.41534149     0.12300
H893        H  0.30671373  0.46955878  0.41639743     0.12300
H894        H  0.33777614  0.44682384  0.41730628     0.12000
H895        H  0.38671782  0.45144772  0.41778994     0.12600
H896        H  0.42770078  0.04662898  0.41615602     0.14500
C897        C  0.07193026  0.01388782  0.41667595    -0.05500
C898        C  0.09704042  0.04181414  0.41393871    -0.05400
C899        C  0.12521800  0.04501105  0.41321938    -0.23600
C900        C  0.12884375  0.02035231  0.41529006     0.18600
C901        C  0.10380310  0.49217480  0.41817834     0.15800
C902        C  0.07549842  0.48910101  0.41882191    -0.18600
C903        C  0.10752244  0.46756060  0.42032117    -0.20400
C904        C  0.13575468  0.47080419  0.41951875    -0.13000
C905        C  0.16077585  0.99871735  0.41657631     0.03700
C906        C  0.15710609  0.02343749  0.41450460    -0.25100
H907        H  0.09490004  0.06125401  0.41220469     0.08700
H908        H  0.14416468  0.06676963  0.41100546     0.12300
H909        H  0.05631584  0.46747034  0.42099316     0.12300
H910        H  0.08861229  0.44580657  0.42259852     0.12000
H911        H  0.13799670  0.45142307  0.42124822     0.12600
H912        H  0.17621816  0.04509440  0.41227460     0.14500
C913        C  0.25764983  0.24978160  0.19786949    -0.05500
C914        C  0.28431716  0.26545201  0.18878012    -0.05400
C915        C  0.28437420  0.26538058  0.17089613    -0.23600
C916        C  0.25776824  0.24958095  0.16177032     0.18600
C917        C  0.23083046  0.23354843  0.17074472     0.15800
C918        C  0.23094157  0.23378185  0.18870554    -0.18600
C919        C  0.20424607  0.21764359  0.16159128    -0.20400
C920        C  0.20429303  0.21790923  0.14369548    -0.13000
C921        C  0.23093259  0.23401545  0.13464183     0.03700
C922        C  0.25764687  0.24966238  0.14382736    -0.25100
H923        H  0.30516223  0.27784356  0.19550207     0.08700
H924        H  0.30524527  0.27774359  0.16419890     0.12300
H925        H  0.21019960  0.22140852  0.19553507     0.12300
H926        H  0.18338834  0.20510569  0.16827519     0.12000
H927        H  0.18347625  0.20553776  0.13694263     0.12600
H928        H  0.27841310  0.26210661  0.13702801     0.14500
C929        C  0.25337638  0.24017820  0.30081473    -0.05500
C930        C  0.22946773  0.21503346  0.30818958    -0.05400
C931        C  0.22692409  0.21159131  0.32592901    -0.23600
C932        C  0.24792108  0.23356532  0.33668520     0.18600
C933        C  0.27196717  0.25911833  0.32943747     0.15800
C934        C  0.27484284  0.26204009  0.31152705    -0.18600
C935        C  0.29242461  0.28147537  0.34025123    -0.20400
C936        C  0.28905681  0.27860591  0.35802551    -0.13000
C937        C  0.26549424  0.25309884  0.36536127     0.03700
C938        C  0.24505741  0.23055095  0.35455853    -0.25100
H939        H  0.21274891  0.19784574  0.30017747     0.08700
H940        H  0.20831852  0.19189646  0.33123418     0.12300
H941        H  0.29321058  0.28162878  0.30594677     0.12300
H942        H  0.31091323  0.30128684  0.33496712     0.12000
H943        H  0.30514950  0.29624822  0.36606523     0.12600
H944        H  0.22665500  0.21088127  0.36005004     0.14500
C945        C  0.25606534  0.32424308  0.25184864    -0.05500
C946        C  0.28309032  0.35088035  0.25370915    -0.05400
C947        C  0.28398687  0.37808147  0.25402633    -0.23600
C948        C  0.25788146  0.37930306  0.25241131     0.18600
C949        C  0.23050293  0.35272892  0.25065165     0.15800
C950        C  0.22972947  0.32535597  0.25045992    -0.18600
C951        C  0.20443394  0.35405970  0.24894135    -0.20400
C952        C  0.20550896  0.38139812  0.24882517    -0.13000
C953        C  0.23264778  0.40798652  0.25049981     0.03700
C954        C  0.25877686  0.40668524  0.25238378    -0.25100
H955        H  0.30371329  0.35074724  0.25486066     0.08700
H956        H  0.30516869  0.39819922  0.25540706     0.12300
H957        H  0.20873748  0.30503317  0.24900523     0.12300
H958        H  0.18322178  0.33397174  0.24758550     0.12000
H959        H  0.18501085  0.38170314  0.24739492     0.12600
H960        H  0.27985384  0.42696849  0.25367107     0.14500
C961        C  0.23487613  0.06377445  0.24851158    -0.05500
C962        C  0.20790277  0.06347591  0.25035436    -0.05400
C963        C  0.20705390  0.08979681  0.25038663    -0.23600
C964        C  0.23315348  0.11701721  0.24848809     0.18600
C965        C  0.26044157  0.11770886  0.24649636     0.15800
C966        C  0.26115973  0.09108881  0.24656279    -0.18600
C967        C  0.28650804  0.14504045  0.24457412    -0.20400
C968        C  0.28558658  0.17139142  0.24486759    -0.13000
C969        C  0.25857022  0.17092706  0.24699823     0.03700
C970        C  0.23238088  0.14353792  0.24866883    -0.25100
H971        H  0.18734612  0.04280224  0.25192896     0.08700
H972        H  0.18594990  0.08884736  0.25194551     0.12300
H973        H  0.28209084  0.09163716  0.24506474     0.12300
H974        H  0.30763410  0.14606171  0.24296195     0.12000
H975        H  0.30608154  0.19218109  0.24346368     0.12600
H976        H  0.21140550  0.14283945  0.25033721     0.14500
C977        C  0.24247053  0.99318428  0.13375597    -0.05500
C978        C  0.21444730  0.48620039  0.14003366    -0.05400
C979        C  0.20893898  0.48417823  0.15758466    -0.23600
C980        C  0.23128862  0.48887052  0.16922036     0.18600
C981        C  0.25963183  0.99609261  0.16306879     0.15800
C982        C  0.26510342  0.99836855  0.14538350    -0.18600
C983        C  0.28196378  0.00076348  0.17472080    -0.20400
C984        C  0.27632739  0.99840324  0.19227366    -0.13000
C985        C  0.24821519  0.99118139  0.19853351     0.03700
C986        C  0.22573520  0.48638651  0.18688978    -0.25100
H987        H  0.19668828  0.48232343  0.13133691     0.08700
H988        H  0.18713452  0.47876105  0.16204618     0.12300
H989        H  0.28676781  0.00370728  0.14068363     0.12300
H990        H  0.30379336  0.00624905  0.17026906     0.12000
H991        H  0.29403036  0.00213369  0.20097684     0.12600
H992        H  0.20403031  0.48095509  0.19156336     0.14500
C993        C  0.24196229  0.00418144  0.36416504    -0.05500
C994        C  0.26663713  0.02669126  0.35566046    -0.05400
C995        C  0.26849384  0.02679852  0.33789030    -0.23600
C996        C  0.24535682  0.00473568  0.32824353     0.18600
C997        C  0.22005179  0.48218664  0.33655899     0.15800
C998        C  0.21871347  0.48173894  0.35457038    -0.18600
C999        C  0.19659852  0.46074466  0.32665566    -0.20400
C1000       C  0.19841103  0.46153475  0.30873762    -0.13000
C1001       C  0.22390922  0.98345293  0.30049276     0.03700
C1002       C  0.24721210  0.00501741  0.31038523    -0.25100
H1003       H  0.28478901  0.04408950  0.36283088     0.08700
H1004       H  0.28797284  0.04427129  0.33168435     0.12300
H1005       H  0.19946910  0.46448073  0.36107378     0.12300
H1006       H  0.17690684  0.44339993  0.33275420     0.12000
H1007       H  0.18018807  0.44468576  0.30135087     0.12600
H1008       H  0.26685007  0.02226018  0.30415547     0.14500
C1009       C  0.50056922  0.25284416  0.19886946    -0.05500
C1010       C  0.47139008  0.23720252  0.19254980    -0.05400
C1011       C  0.46575381  0.23540278  0.17499746    -0.23600
C1012       C  0.48918607  0.24919051  0.16338315     0.18600
C1013       C  0.01859795  0.26507182  0.16959704     0.15800
C1014       C  0.02410867  0.26680554  0.18726620    -0.18600
C1015       C  0.04205152  0.27890671  0.15802530    -0.20400
C1016       C  0.03651425  0.27682378  0.14048005    -0.13000
C1017       C  0.50740073  0.26089900  0.13409773     0.03700
C1018       C  0.48374449  0.24724000  0.14567789    -0.25100
H1019       H  0.45278599  0.22630694  0.20120077     0.08700
H1020       H  0.44306562  0.22317456  0.17051647     0.12300
H1021       H  0.04667774  0.27901797  0.19195929     0.12300
H1022       H  0.06471909  0.29123484  0.16253196     0.12000
H1023       H  0.05519090  0.28766766  0.13187518     0.12600
H1024       H  0.46120931  0.23494977  0.14094111     0.14500
C1025       C  0.50523255  0.24433159  0.36457935    -0.05500
C1026       C  0.48391332  0.21884601  0.35595992    -0.05400
C1027       C  0.48313794  0.21757133  0.33817938    -0.23600
C1028       C  0.50385786  0.24166194  0.32859673     0.18600
C1029       C  0.02556672  0.26748976  0.33697708     0.15800
C1030       C  0.02594216  0.26881171  0.35498780    -0.18600
C1031       C  0.04656996  0.29128731  0.32713953    -0.20400
C1032       C  0.04589680  0.28947225  0.30922017    -0.13000
C1033       C  0.52393279  0.26403661  0.30091743     0.03700
C1034       C  0.50308337  0.24022100  0.31072979    -0.25100
H1035       H  0.46769155  0.19970211  0.36299636     0.08700
H1036       H  0.46641006  0.19761817  0.33192080     0.12300
H1037       H  0.04261115  0.28848962  0.36149330     0.12300
H1038       H  0.06343574  0.31127300  0.33328849     0.12000
H1039       H  0.06200786  0.30818389  0.30185268     0.12600
H1040       H  0.48615754  0.22042292  0.30441540     0.14500
C1041       C  0.00683760  0.33186691  0.25049983    -0.05500
C1042       C  0.47914028  0.32999399  0.25214216    -0.05400
C1043       C  0.47700229  0.35562917  0.25267066    -0.23600
C1044       C  0.50254169  0.38359081  0.25166093     0.18600
C1045       C  0.03052547  0.38577216  0.24996875     0.15800
C1046       C  0.03247803  0.35992562  0.24932140    -0.18600
C1047       C  0.05606674  0.41377349  0.24905242    -0.20400
C1048       C  0.05391321  0.43941426  0.24986205    -0.13000
C1049       C  0.52617077  0.43747850  0.25149823     0.03700
C1050       C  0.50055051  0.40939486  0.25235419    -0.25100
H1051       H  0.45909506  0.30868612  0.25303514     0.08700
H1052       H  0.45536531  0.35358263  0.25395442     0.12300
H1053       H  0.05401588  0.36170937  0.24805841     0.12300
H1054       H  0.07771117  0.41584805  0.24772607     0.12000
H1055       H  0.07393311  0.46075696  0.24903861     0.12600
H1056       H  0.47899017  0.40756609  0.25359075     0.14500
C1057       C  0.02300420  0.18618815  0.24918000    -0.05500
C1058       C  0.05147698  0.18949916  0.24893364    -0.05400
C1059       C  0.05517086  0.16476796  0.24879291    -0.23600
C1060       C  0.03045633  0.13621109  0.24885290     0.18600
C1061       C  0.50170852  0.13257419  0.24898854     0.15800
C1062       C  0.49815734  0.15754873  0.24918611    -0.18600
C1063       C  0.47699663  0.10400374  0.24897357    -0.20400
C1064       C  0.48070980  0.07927921  0.24897081    -0.13000
C1065       C  0.50919956  0.08262439  0.24900573     0.03700
C1066       C  0.03402466  0.11125707  0.24886408    -0.25100
H1067       H  0.07100656  0.21129202  0.24892115     0.08700
H1068       H  0.07736918  0.16799215  0.24867163     0.12300
H1069       H  0.47608557  0.15466958  0.24932473     0.12300
H1070       H  0.45479351  0.10076695  0.24903792     0.12000
H1071       H  0.46119276  0.05747691  0.24906407     0.12600
H1072       H  0.05610578  0.11415502  0.24885761     0.14500
C1073       C  0.00922745  0.01106044  0.13513379    -0.05500
C1074       C  0.48123407  0.49994546  0.14277895    -0.05400
C1075       C  0.47797295  0.49698950  0.16051319    -0.23600
C1076       C  0.50263483  0.50502551  0.17099199     0.18600
C1077       C  0.03089087  0.01612470  0.16346418     0.15800
C1078       C  0.03402702  0.01911520  0.14560362    -0.18600
C1079       C  0.05555637  0.02418960  0.17394870    -0.20400
C1080       C  0.05239019  0.02186246  0.19170841    -0.13000
C1081       C  0.02447030  0.01121336  0.19936134     0.03700
C1082       C  0.49956432  0.50245884  0.18886784    -0.25100
H1083       H  0.46173210  0.49352849  0.13502613     0.08700
H1084       H  0.45614802  0.48846349  0.16602860     0.12300
H1085       H  0.05569317  0.02753321  0.13987434     0.12300
H1086       H  0.07736384  0.03260298  0.16843077     0.12000
H1087       H  0.07192881  0.02860171  0.19948677     0.12600
H1088       H  0.47793611  0.49427456  0.19460372     0.14500
C1089       C  0.01439018  0.01453975  0.30215241    -0.05500
C1090       C  0.03698030  0.03955237  0.31051205    -0.05400
C1091       C  0.03612109  0.04308751  0.32818285    -0.23600
C1092       C  0.01293777  0.02136547  0.33794813     0.18600
C1093       C  0.49029612  0.49585802  0.32973961     0.15800
C1094       C  0.49090322  0.49281324  0.31186141    -0.18600
C1095       C  0.46767729  0.47366016  0.33960434    -0.20400
C1096       C  0.46770424  0.47649266  0.35739785    -0.13000
C1097       C  0.98991013  0.00187311  0.36566443     0.03700
C1098       C  0.01231228  0.02446459  0.35580739    -0.25100
H1099       H  0.05521067  0.05670314  0.30330894     0.08700
H1100       H  0.05374229  0.06271278  0.33422598     0.12300
H1101       H  0.47347436  0.47335292  0.30556674     0.12300
H1102       H  0.45020360  0.45389632  0.33359122     0.12000
H1103       H  0.45022654  0.45879807  0.36473822     0.12600
H1104       H  0.02975967  0.04393937  0.36208525     0.14500
O1105       O  0.49698563  0.99696902  0.22568608    -0.72000
O1106       O  0.49247668  0.99649714  0.27448801    -0.72300
O1107       O  0.49042383  0.53057760  0.24940295    -0.72100
O1108       O  0.49847911  0.96241996  0.25067975    -0.72100
O1109       O  0.04620449  0.99006227  0.25270926    -0.72100
O1110       O  0.03820900  0.55866891  0.25012010    -0.72100
O1111       O  0.04011386  0.52555507  0.27563633    -0.72000
O1112       O  0.04483270  0.52376949  0.22737737    -0.72200
V1113       V  0.49550935  0.99710883  0.25010127     1.35200
V1114       V  0.04140341  0.52392017  0.25145991     1.35200
C1115       C  0.02186637  0.51044323  0.21824046     0.77200
C1116       C  0.01561099  0.51178324  0.28333834     0.77300
C1117       C  0.51282875  0.55625494  0.24947602     0.77100
C1118       C  0.52360289  0.96447075  0.25174217     0.77100
O1119       O  0.48676065  0.77936498  0.25236836    -0.72000
O1120       O  0.49420379  0.71036170  0.25077430    -0.72300
O1121       O  0.49579363  0.74669892  0.27550338    -0.72100
O1122       O  0.48443405  0.74260403  0.22771166    -0.72100
O1123       O  0.03190927  0.76868843  0.22379342    -0.72100
O1124       O  0.04307099  0.77607317  0.27226419    -0.72100
O1125       O  0.04180931  0.73824934  0.24824986    -0.72000
O1126       O  0.03395109  0.80654410  0.24776052    -0.72200
V1127       V  0.49124066  0.74530098  0.25152687     1.35200
V1128       V  0.03680409  0.77181593  0.24807259     1.35200
C1129       C  0.00918747  0.80477055  0.25017361     0.77200
C1130       C  0.01945389  0.71263263  0.24941070     0.77300
C1131       C  0.52105004  0.76233236  0.28211482     0.77100
C1132       C  0.50601128  0.75478850  0.21753678     0.77100
O1133       O  0.25748774  0.96102602  0.25255064    -0.72000
O1134       O  0.25906641  0.53487039  0.25001079    -0.72300
O1135       O  0.25278032  0.49729987  0.27519898    -0.72100
O1136       O  0.26435957  0.49891444  0.22744804    -0.72100
O1137       O  0.21692966  0.97788755  0.22332941    -0.72100
O1138       O  0.20514350  0.97155105  0.27171697    -0.72100
O1139       O  0.21118459  0.51112850  0.24769584    -0.72000
O1140       O  0.21029430  0.93801554  0.24734040    -0.72200
V1141       V  0.25749223  0.49755357  0.25123897     1.35200
V1142       V  0.21177830  0.97508929  0.24757332     1.35200
C1143       C  0.23357464  0.93688258  0.25013427     0.77200
C1144       C  0.23517282  0.53549948  0.24870971     0.77300
C1145       C  0.22721179  0.48396898  0.28169183     0.77100
C1146       C  0.24281802  0.48917244  0.21718356     0.77100
O1147       O  0.23193063  0.77106902  0.25049771    -0.72000
O1148       O  0.23343960  0.69882447  0.24766256    -0.72300
O1149       O  0.23149616  0.73191175  0.27323208    -0.72100
O1150       O  0.23333652  0.73718639  0.22490124    -0.72100
O1151       O  0.28136962  0.76128314  0.22539980    -0.72100
O1152       O  0.27950661  0.75748720  0.27420643    -0.72100
O1153       O  0.28144410  0.72357173  0.24873101    -0.72000
O1154       O  0.27996091  0.79545835  0.25080829    -0.72200
V1155       V  0.23349940  0.73529972  0.24909402     1.35200
V1156       V  0.27964744  0.75900516  0.24977379     1.35200
C1157       C  0.25585029  0.79569357  0.25105309     0.77200
C1158       C  0.25776453  0.69890789  0.24778088     0.77300
C1159       C  0.25500798  0.74350910  0.28199174     0.77100
C1160       C  0.25753383  0.74956875  0.21683094     0.77100
O1161       O  0.00173536  0.53153405  0.44114741    -0.72000
O1162       O  0.00157636  0.52850692  0.39228075    -0.72300
O1163       O  0.46371528  0.52693750  0.41634823    -0.72100
O1164       O  0.03943309  0.53354242  0.41700955    -0.72100
O1165       O  0.01896162  0.98566869  0.41734657    -0.72100
O1166       O  0.44303117  0.97913729  0.41805375    -0.72100
O1167       O  0.47945333  0.98054304  0.39347819    -0.72000
O1168       O  0.48212681  0.98378641  0.44194973    -0.72200
V1169       V  0.00118669  0.52922021  0.41672709     1.35200
V1170       V  0.48131512  0.98323522  0.41769256     1.35200
C1171       C  0.99215911  0.00805111  0.44989075     0.77200
C1172       C  0.99030350  0.50383927  0.38457514     0.77300
C1173       C  0.44041470  0.50194209  0.41716197     0.77100
C1174       C  0.04220019  0.51083254  0.41707895     0.77100
O1175       O  0.48606906  0.76940597  0.41719809    -0.72000
O1176       O  0.05490308  0.76241729  0.41616239    -0.72300
O1177       O  0.02073892  0.76757731  0.39222942    -0.72100
O1178       O  0.01998401  0.76365563  0.44109760    -0.72100
O1179       O  0.49412408  0.71575142  0.43948304    -0.72100
O1180       O  0.49168812  0.71994203  0.39137130    -0.72100
O1181       O  0.02764249  0.71470688  0.41378559    -0.72000
O1182       O  0.45846560  0.72155936  0.41697719    -0.72200
V1183       V  0.01989832  0.76487774  0.41665295     1.35200
V1184       V  0.49352667  0.71894128  0.41543805     1.35200
C1185       C  0.46052461  0.74678625  0.41741225     0.77200
C1186       C  0.05312692  0.73748217  0.41457001     0.77300
C1187       C  0.50600269  0.74417507  0.38349981     0.77100
C1188       C  0.50708311  0.73878763  0.44858543     0.77100
O1189       O  0.19399833  0.97980822  0.41717309    -0.72000
O1190       O  0.27051067  0.98829084  0.41547471    -0.72300
O1191       O  0.23457405  0.98663984  0.44062343    -0.72100
O1192       O  0.22986119  0.98165006  0.39190573    -0.72100
O1193       O  0.25212817  0.52963757  0.39064413    -0.72100
O1194       O  0.25195623  0.53402887  0.43897406    -0.72100
O1195       O  0.29030968  0.53609762  0.41541332    -0.72000
O1196       O  0.21348208  0.52732425  0.41425503    -0.72200
V1197       V  0.23261528  0.98498525  0.41625233     1.35200
V1198       V  0.25153664  0.53083432  0.41483361     1.35200
C1199       C  0.19063498  0.50209694  0.41592099     0.77200
C1200       C  0.29350893  0.51360985  0.41546123     0.77300
C1201       C  0.24369688  0.01125575  0.44810272     0.77100
C1202       C  0.24095195  0.50501820  0.38300291     0.77100
O1203       O  0.23778806  0.77289100  0.41742085    -0.72000
O1204       O  0.30601560  0.76427391  0.41870168    -0.72300
O1205       O  0.27537632  0.77247498  0.39384627    -0.72100
O1206       O  0.26876292  0.76490897  0.44225524    -0.72100
O1207       O  0.24114718  0.71729449  0.43963183    -0.72100
O1208       O  0.24694490  0.72495740  0.39114104    -0.72100
O1209       O  0.27801493  0.71673256  0.41585388    -0.72000
O1210       O  0.21001152  0.72525747  0.41492176    -0.72200
V1211       V  0.27142495  0.76772548  0.41799490     1.35200
V1212       V  0.24458073  0.72200064  0.41543958     1.35200
C1213       C  0.21219160  0.75043529  0.41604784     0.77200
C1214       C  0.30363052  0.73898020  0.41745561     0.77300
C1215       C  0.26240360  0.75003943  0.38421604     0.77100
C1216       C  0.25392428  0.73981151  0.44924135     0.77100
O1217       O  0.49399325  0.00493222  0.05880735    -0.72000
O1218       O  0.48910670  0.00207699  0.10703855    -0.72300
O1219       O  0.49208930  0.54036007  0.08304994    -0.72100
O1220       O  0.49171443  0.96700925  0.08276594    -0.72100
O1221       O  0.03964854  0.99109315  0.08469608    -0.72100
O1222       O  0.04007954  0.56383570  0.08430899    -0.72100
O1223       O  0.03704485  0.52617487  0.10892916    -0.72000
O1224       O  0.04198775  0.52795763  0.06017942    -0.72200
V1225       V  0.49266645  0.00407177  0.08295497     1.35200
V1226       V  0.03876201  0.52686606  0.08451833     1.35200
C1227       C  0.01861674  0.51654228  0.05121031     0.77200
C1228       C  0.01204367  0.51336185  0.11627244     0.77300
C1229       C  0.01631638  0.56468725  0.08356411     0.77100
C1230       C  0.01580579  0.96666183  0.08364314     0.77100
O1231       O  0.47121542  0.70712136  0.08395419    -0.72000
O1232       O  0.47124640  0.77962373  0.08531613    -0.72300
O1233       O  0.46667528  0.74236027  0.06035622    -0.72100
O1234       O  0.47658892  0.74509025  0.10891112    -0.72100
O1235       O  0.02420182  0.77029378  0.10538077    -0.72100
O1236       O  0.01444049  0.76468494  0.05746414    -0.72100
O1237       O  0.01876847  0.80378860  0.08127120    -0.72000
O1238       O  0.01908301  0.73076432  0.08166605    -0.72200
V1239       V  0.47233611  0.74396248  0.08457837     1.35200
V1240       V  0.01818337  0.76691240  0.08150512     1.35200
C1241       C  0.49499798  0.70638812  0.08278660     0.77200
C1242       C  0.49479364  0.80405122  0.08332254     0.77300
C1243       C  0.48913027  0.75310366  0.05066081     0.77100
C1244       C  0.50233703  0.75859767  0.11538356     0.77100
O1245       O  0.28411179  0.51019423  0.06037064    -0.72000
O1246       O  0.27334185  0.50667962  0.10879119    -0.72300
O1247       O  0.27855026  0.97213766  0.08508169    -0.72100
O1248       O  0.27942598  0.54520746  0.08410461    -0.72100
O1249       O  0.23175859  0.52190692  0.08062846    -0.72100
O1250       O  0.23089059  0.94836862  0.08155557    -0.72100
O1251       O  0.22572915  0.98333568  0.10499181    -0.72000
O1252       O  0.23638199  0.98694181  0.05711223    -0.72200
V1253       V  0.27794589  0.50812128  0.08452638     1.35200
V1254       V  0.23214040  0.98557503  0.08113308     1.35200
C1255       C  0.26185415  0.49905111  0.05050058     0.77200
C1256       C  0.24752762  0.49449729  0.11509852     0.77300
C1257       C  0.25473686  0.94778681  0.08339719     0.77100
C1258       C  0.25581690  0.54614223  0.08231877     0.77100
O1259       O  0.20859360  0.75980378  0.08318133    -0.72000
O1260       O  0.20901887  0.68740358  0.08188835    -0.72300
O1261       O  0.20757928  0.72197244  0.10696656    -0.72100
O1262       O  0.21065932  0.72557255  0.05816509    -0.72100
O1263       O  0.25864250  0.74746145  0.05957280    -0.72100
O1264       O  0.25554644  0.74791793  0.10780278    -0.72100
O1265       O  0.25689982  0.71119233  0.08420232    -0.72000
O1266       O  0.25663102  0.78417983  0.08306127    -0.72200
V1267       V  0.20986208  0.72414153  0.08258377     1.35200
V1268       V  0.25598880  0.74726921  0.08364196     1.35200
C1269       C  0.23242409  0.78437966  0.08308220     0.77200
C1270       C  0.23288652  0.68678899  0.08295949     0.77300
C1271       C  0.23123234  0.73460763  0.11569722     0.77100
C1272       C  0.23540713  0.73663942  0.05062683     0.77100
O1273       O  0.44580992  0.98024026  0.91714137    -0.72000
O1274       O  0.01478811  0.55670439  0.91891898    -0.72300
O1275       O  0.48080973  0.52020513  0.89381500    -0.72100
O1276       O  0.47941083  0.51677531  0.94216919    -0.72100
O1277       O  0.00925584  0.99904170  0.94175227    -0.72100
O1278       O  0.00664775  0.99805883  0.89301380    -0.72100
O1279       O  0.04218618  0.53633822  0.91695621    -0.72000
O1280       O  0.47372127  0.96033337  0.91781112    -0.72200
V1281       V  0.48075349  0.51812054  0.91798771     1.35200
V1282       V  0.00739444  0.99879884  0.91739620     1.35200
C1283       C  0.44807552  0.95717927  0.91737937     0.77200
C1284       C  0.04032216  0.55949873  0.91810575     0.77300
C1285       C  0.99349720  0.00935069  0.88510356     0.77100
C1286       C  0.99442962  0.00782869  0.95023534     0.77100
O1287       O  0.47396193  0.70154843  0.91829371    -0.72000
O1288       O  0.05074889  0.77015430  0.91626982    -0.72300
O1289       O  0.01364468  0.73848154  0.94140030    -0.72100
O1290       O  0.01177108  0.73319533  0.89316410    -0.72100
O1291       O  0.49306963  0.76211947  0.89170189    -0.72100
O1292       O  0.49178695  0.76463567  0.94048602    -0.72100
O1293       O  0.03041282  0.79768937  0.91599791    -0.72000
O1294       O  0.45430020  0.72955500  0.91616853    -0.72200
V1295       V  0.01207254  0.73631896  0.91726579     1.35200
V1296       V  0.49278208  0.76296843  0.91610631     1.35200
C1297       C  0.45098068  0.70395099  0.91740367     0.77200
C1298       C  0.05358636  0.79572057  0.91595519     0.77300
C1299       C  0.50315704  0.75238200  0.94919859     0.77100
C1300       C  0.50266621  0.74708988  0.88413941     0.77100
O1301       O  0.22168357  0.95429394  0.91513017    -0.72000
O1302       O  0.29732471  0.52303669  0.91626591    -0.72300
O1303       O  0.25983353  0.98678743  0.94006727    -0.72100
O1304       O  0.25917110  0.99123862  0.89130653    -0.72100
O1305       O  0.23931472  0.51909603  0.89325208    -0.72100
O1306       O  0.23802198  0.51296636  0.94140963    -0.72100
O1307       O  0.27715973  0.55059387  0.91842632    -0.72000
O1308       O  0.20084992  0.98134098  0.91625593    -0.72200
V1309       V  0.25909120  0.98935055  0.91570711     1.35200
V1310       V  0.23928919  0.51550936  0.91730651     1.35200
C1311       C  0.19832851  0.95592083  0.91550383     0.77200
C1312       C  0.30031585  0.54849350  0.91764148     0.77300
C1313       C  0.24853901  0.99890282  0.94897660     0.77100
C1314       C  0.24915592  0.00612059  0.88399507     0.77100
O1315       O  0.22829194  0.76615493  0.93977863    -0.72000
O1316       O  0.23581916  0.76417417  0.89146969    -0.72300
O1317       O  0.19814343  0.72738602  0.91510432    -0.72100
O1318       O  0.26616845  0.80369858  0.91623759    -0.72100
O1319       O  0.29417796  0.78416587  0.91913349    -0.72100
O1320       O  0.22564459  0.70732802  0.91830034    -0.72100
O1321       O  0.26335885  0.74418255  0.89471084    -0.72000
O1322       O  0.25646456  0.74681592  0.94277759    -0.72200
V1323       V  0.23273610  0.76505391  0.91568370     1.35200
V1324       V  0.25943487  0.74607221  0.91868259     1.35200
C1325       C  0.24055540  0.75605804  0.94949568     0.77200
C1326       C  0.25052662  0.75338836  0.88485151     0.77300
C1327       C  0.20013389  0.70436328  0.91670871     0.77100
C1328       C  0.29179796  0.80708645  0.91778682     0.77100
O1329       O  0.46929551  0.95793979  0.55945917    -0.72000
O1330       O  0.47246312  0.95654750  0.60803926    -0.72300
O1331       O  0.43436439  0.95731135  0.58494363    -0.72100
O1332       O  0.00701004  0.95709102  0.58254741    -0.72100
O1333       O  0.03122492  0.50505398  0.58402170    -0.72100
O1334       O  0.45830587  0.50532448  0.58437831    -0.72100
O1335       O  0.99465210  0.50455550  0.60858540    -0.72000
O1336       O  0.99482469  0.50592538  0.55984516    -0.72200
V1337       V  0.47120567  0.95816816  0.58375908     1.35200
V1338       V  0.99430545  0.50430431  0.58420788     1.35200
C1339       C  0.98187826  0.98212493  0.55131179     0.77200
C1340       C  0.98401431  0.98031172  0.61661205     0.77300
C1341       C  0.43383096  0.98130144  0.58481311     0.77100
C1342       C  0.03155373  0.98098019  0.58306075     0.77100
O1343       O  0.46056290  0.71421590  0.58170491    -0.72000
O1344       O  0.03765416  0.72334113  0.58236244    -0.72300
O1345       O  0.49727584  0.71494864  0.60627794    -0.72100
O1346       O  0.50107887  0.72264854  0.55775535    -0.72100
O1347       O  0.02143108  0.77030261  0.56039262    -0.72100
O1348       O  0.01517806  0.76237112  0.60863428    -0.72100
O1349       O  0.05676420  0.77077776  0.58553096    -0.72000
O1350       O  0.48014559  0.76190384  0.58350471    -0.72200
V1351       V  0.49950264  0.71967083  0.58206119     1.35200
V1352       V  0.01801509  0.76537706  0.58447078     1.35200
C1353       C  0.45726061  0.73664022  0.58236519     0.77200
C1354       C  0.06036714  0.74862323  0.58423054     0.77300
C1355       C  0.50535621  0.73742700  0.61571829     0.77100
C1356       C  0.51197711  0.74786437  0.55079370     0.77100
O1357       O  0.19634097  0.98141707  0.58362324    -0.72000
O1358       O  0.26963991  0.98189576  0.58402136    -0.72300
O1359       O  0.23455237  0.98518440  0.60800418    -0.72100
O1360       O  0.23143504  0.97792019  0.55964211    -0.72100
O1361       O  0.25548833  0.52577430  0.55726410    -0.72100
O1362       O  0.25747704  0.53306633  0.60577744    -0.72100
O1363       O  0.29327106  0.52979404  0.58205579    -0.72000
O1364       O  0.22016499  0.52922893  0.58101670    -0.72200
V1365       V  0.23344831  0.98254017  0.58378032     1.35200
V1366       V  0.25618484  0.52853263  0.58156084     1.35200
C1367       C  0.19576747  0.00531459  0.58224739     0.77200
C1368       C  0.29401807  0.00597695  0.58318512     0.77300
C1369       C  0.24627925  0.01027784  0.61516294     0.77100
C1370       C  0.24287862  0.00056591  0.55016898     0.77100
O1371       O  0.27143236  0.77289260  0.56096392    -0.72000
O1372       O  0.27058619  0.76660392  0.60931946    -0.72300
O1373       O  0.30893913  0.77293160  0.58450374    -0.72100
O1374       O  0.23284733  0.76620248  0.58576374    -0.72100
O1375       O  0.21254602  0.71838341  0.58468186    -0.72100
O1376       O  0.28821674  0.72533453  0.58130194    -0.72100
O1377       O  0.25198023  0.71905350  0.60723893    -0.72000
O1378       O  0.24917437  0.72505398  0.55871742    -0.72200
V1379       V  0.27055844  0.76873933  0.58509986     1.35200
V1380       V  0.25083524  0.72287421  0.58302296     1.35200
C1381       C  0.26034462  0.75013018  0.55154264     0.77200
C1382       C  0.26157080  0.74190026  0.61655680     0.77300
C1383       C  0.31151847  0.75021985  0.58258134     0.77100
C1384       C  0.20964605  0.74100207  0.58554696     0.77100
O1385       O  0.44911280  0.97283369  0.75237721    -0.72000
O1386       O  0.01783780  0.54895673  0.75127050    -0.72300
O1387       O  0.48095674  0.51145430  0.72756581    -0.72100
O1388       O  0.48614433  0.51042655  0.77602025    -0.72100
O1389       O  0.01462646  0.99129469  0.77395749    -0.72100
O1390       O  0.00693573  0.98954598  0.72549387    -0.72100
O1391       O  0.04523440  0.52872300  0.74845394    -0.72000
O1392       O  0.47660912  0.95249448  0.75115717    -0.72200
V1393       V  0.48403890  0.51050649  0.75176421     1.35200
V1394       V  0.01036179  0.99094526  0.74977958     1.35200
C1395       C  0.45112059  0.94965651  0.75219647     0.77200
C1396       C  0.04327807  0.55188916  0.74962681     0.77300
C1397       C  0.49281432  0.00041411  0.71825375     0.77100
C1398       C  0.50131402  0.00076138  0.78328171     0.77100
O1399       O  0.44788531  0.73042683  0.74804063    -0.72000
O1400       O  0.02440821  0.79955219  0.75029733    -0.72300
O1401       O  0.48843236  0.76594391  0.72503068    -0.72100
O1402       O  0.48360821  0.76454227  0.77326707    -0.72100
O1403       O  0.00513211  0.73814893  0.77454408    -0.72100
O1404       O  0.00711531  0.73694649  0.72571393    -0.72100
O1405       O  0.04423860  0.77156719  0.75045324    -0.72000
O1406       O  0.46839270  0.70314520  0.74984115    -0.72200
V1407       V  0.48645418  0.76456345  0.74917090     1.35200
V1408       V  0.00583280  0.73798935  0.75012044     1.35200
C1409       C  0.44518816  0.70491285  0.74870670     0.77200
C1410       C  0.04745035  0.79721170  0.75065138     0.77300
C1411       C  0.99833683  0.75165401  0.71707718     0.77100
C1412       C  0.99378078  0.75151058  0.78220469     0.77100
O1413       O  0.20197299  0.97828732  0.75058869    -0.72000
O1414       O  0.27806905  0.54626911  0.74910683    -0.72300
O1415       O  0.23852125  0.51178721  0.72538905    -0.72100
O1416       O  0.24213022  0.51255155  0.77426983    -0.72100
O1417       O  0.26308966  0.98562941  0.77308911    -0.72100
O1418       O  0.25696472  0.98256681  0.72491800    -0.72100
O1419       O  0.29825642  0.51866770  0.74759138    -0.72000
O1420       O  0.22148751  0.95002128  0.75048664    -0.72200
V1421       V  0.24052552  0.51166041  0.74982316     1.35200
V1422       V  0.25956115  0.98476722  0.74902818     1.35200
C1423       C  0.19856073  0.95256423  0.75084688     0.77200
C1424       C  0.30115545  0.54427457  0.74810778     0.77300
C1425       C  0.24692521  0.99663075  0.71686905     0.77100
C1426       C  0.25379467  0.99951609  0.78196738     0.77100
O1427       O  0.29519127  0.77922077  0.75211422    -0.72000
O1428       O  0.22657107  0.70297977  0.75084089    -0.72300
O1429       O  0.26356928  0.74076718  0.72708631    -0.72100
O1430       O  0.25815522  0.74160107  0.77574172    -0.72100
O1431       O  0.22940152  0.76038355  0.77339804    -0.72100
O1432       O  0.23752272  0.76264905  0.72528699    -0.72100
O1433       O  0.19908705  0.72309014  0.74789458    -0.72000
O1434       O  0.26753775  0.79938444  0.75089350    -0.72200
V1435       V  0.26032731  0.74148113  0.75139562     1.35200
V1436       V  0.23387402  0.76089742  0.74938923     1.35200
C1437       C  0.29308426  0.80234193  0.75187273     0.77200
C1438       C  0.20109031  0.69997254  0.74919403     0.77300
C1439       C  0.25209500  0.75243425  0.71794828     0.77100
C1440       C  0.24280712  0.75124071  0.78284112     0.77100
C1441       C  0.33055593  0.57145670  0.74777743    -0.05500
C1442       C  0.35667829  0.56991421  0.74798203    -0.05400
C1443       C  0.38432522  0.59579516  0.74812158    -0.23600
C1444       C  0.38629546  0.62363262  0.74803489     0.18600
C1445       C  0.36017229  0.62542687  0.74773522     0.15800
C1446       C  0.33255185  0.59939264  0.74761749    -0.18600
C1447       C  0.36210828  0.65323706  0.74761996    -0.20400
C1448       C  0.38972181  0.67911883  0.74785035    -0.13000
C1449       C  0.41586453  0.67762518  0.74823543     0.03700
C1450       C  0.41391862  0.64969880  0.74829365    -0.25100
H1451       H  0.35573726  0.54870825  0.74815881     0.08700
H1452       H  0.40417112  0.59403769  0.74835301     0.12300
H1453       H  0.31258120  0.60094713  0.74746105     0.12300
H1454       H  0.34225100  0.65497526  0.74738564     0.12000
H1455       H  0.39061299  0.70030293  0.74780446     0.12600
H1456       H  0.43390929  0.64818623  0.74856386     0.14500
C1457       C  0.16838627  0.92638383  0.75137513    -0.05500
C1458       C  0.14348860  0.93016913  0.75129447    -0.05400
C1459       C  0.11486522  0.90574469  0.75135096    -0.23600
C1460       C  0.11051906  0.87699588  0.75148427     0.18600
C1461       C  0.13536487  0.87290072  0.75173165     0.15800
C1462       C  0.16409993  0.89757097  0.75168737    -0.18600
C1463       C  0.13105003  0.84417388  0.75189008    -0.20400
C1464       C  0.10246097  0.81974575  0.75163733    -0.13000
C1465       C  0.07754891  0.82348990  0.75122842     0.03700
C1466       C  0.08178316  0.85229662  0.75125176    -0.25100
H1467       H  0.14610726  0.95210631  0.75106964     0.08700
H1468       H  0.09613265  0.90935999  0.75118841     0.12300
H1469       H  0.18306760  0.89431639  0.75177078     0.12300
H1470       H  0.14979118  0.84057446  0.75211708     0.12000
H1471       H  0.09988830  0.79782403  0.75168084     0.12600
H1472       H  0.06279654  0.85551457  0.75097690     0.14500
C1473       C  0.42436102  0.92002388  0.75313869    -0.05500
C1474       C  0.42693039  0.89458145  0.75488150    -0.05400
C1475       C  0.40171239  0.86650378  0.75543556    -0.23600
C1476       C  0.37346943  0.86335312  0.75414793     0.18600
C1477       C  0.37061923  0.88880884  0.75258834     0.15800
C1478       C  0.39603536  0.91694443  0.75217584    -0.18600
C1479       C  0.34239651  0.88567607  0.75125709    -0.20400
C1480       C  0.31721860  0.85756498  0.75121852    -0.13000
C1481       C  0.31978490  0.83206562  0.75253538     0.03700
C1482       C  0.34806302  0.83517898  0.75416275    -0.25100
H1483       H  0.44848508  0.89636819  0.75577215     0.08700
H1484       H  0.40431624  0.84724287  0.75670181     0.12300
H1485       H  0.39374057  0.93638960  0.75085580     0.12300
H1486       H  0.33979899  0.90495258  0.75007762     0.12000
H1487       H  0.29570996  0.85579145  0.74998096     0.12600
H1488       H  0.35035754  0.81570274  0.75524405     0.14500
C1489       C  0.06997792  0.58167162  0.74920151    -0.05500
C1490       C  0.06718209  0.60711285  0.74868093    -0.05400
C1491       C  0.09225585  0.63531442  0.74840953    -0.23600
C1492       C  0.12062492  0.63862884  0.74873892     0.18600
C1493       C  0.12371670  0.61322088  0.74934742     0.15800
C1494       C  0.09841844  0.58494277  0.74951098    -0.18600
C1495       C  0.15207531  0.61653310  0.74983971    -0.20400
C1496       C  0.17715074  0.64473085  0.74971448    -0.13000
C1497       C  0.17437700  0.67017466  0.74902932     0.03700
C1498       C  0.14593403  0.66690481  0.74853413    -0.25100
H1499       H  0.04554570  0.60522842  0.74844060     0.08700
H1500       H  0.08944660  0.65453052  0.74797637     0.12300
H1501       H  0.10089684  0.56552384  0.75000532     0.12300
H1502       H  0.15487532  0.59731638  0.75036078     0.12000
H1503       H  0.19877362  0.64660352  0.75016431     0.12600
H1504       H  0.14345547  0.68632710  0.74810757     0.14500
C1505       C  0.26191076  0.74001968  0.63544050    -0.05500
C1506       C  0.26154610  0.71584427  0.64360615    -0.05400
C1507       C  0.26119961  0.71403996  0.66150094    -0.23600
C1508       C  0.26049485  0.73604201  0.67151246     0.18600
C1509       C  0.26086707  0.76040876  0.66334035     0.15800
C1510       C  0.26210344  0.76248177  0.64545021    -0.18600
C1511       C  0.25920337  0.78198629  0.67315273    -0.20400
C1512       C  0.25641302  0.77913011  0.69087621    -0.13000
C1513       C  0.25598450  0.75507226  0.69920189     0.03700
C1514       C  0.25863565  0.73380744  0.68948156    -0.25100
H1515       H  0.26161480  0.69838148  0.63614160     0.08700
H1516       H  0.26090644  0.69517566  0.66748964     0.12300
H1517       H  0.26221648  0.78115317  0.63929110     0.12300
H1518       H  0.25945472  0.80078334  0.66709249     0.12000
H1519       H  0.25469199  0.79590304  0.69813828     0.12600
H1520       H  0.25816835  0.71510641  0.69581948     0.14500
C1521       C  0.24670711  0.01264984  0.63402521    -0.05500
C1522       C  0.24943875  0.53799905  0.64207968    -0.05400
C1523       C  0.24900392  0.53970206  0.65995203    -0.23600
C1524       C  0.24639961  0.51630205  0.67006953     0.18600
C1525       C  0.24418655  0.99097241  0.66201891     0.15800
C1526       C  0.24398085  0.98916995  0.64411914    -0.18600
C1527       C  0.24249420  0.96790968  0.67198883    -0.20400
C1528       C  0.24325589  0.96996034  0.68978027    -0.13000
C1529       C  0.24513851  0.99482560  0.69799584     0.03700
C1530       C  0.24639236  0.51788502  0.68805685    -0.25100
H1531       H  0.25145281  0.55632024  0.63454023     0.08700
H1532       H  0.25087043  0.55936636  0.66585196     0.12300
H1533       H  0.24213400  0.96962546  0.63803482     0.12300
H1534       H  0.24090392  0.94840253  0.66602664     0.12000
H1535       H  0.24221961  0.95190951  0.69716721     0.12600
H1536       H  0.24819348  0.53729328  0.69428593     0.14500
C1537       C  0.42757959  0.73376555  0.58185182    -0.05500
C1538       C  0.40180429  0.70584242  0.58100450    -0.05400
C1539       C  0.37386586  0.70345734  0.58070715    -0.23600
C1540       C  0.37126850  0.72895895  0.58126876     0.18600
C1541       C  0.39707436  0.75710006  0.58202993     0.15800
C1542       C  0.42495404  0.75930206  0.58229377    -0.18600
C1543       C  0.39461372  0.78263428  0.58263365    -0.20400
C1544       C  0.36679502  0.78036405  0.58267061    -0.13000
C1545       C  0.34093512  0.75252711  0.58204308     0.03700
C1546       C  0.34336414  0.72685059  0.58122422    -0.25100
H1547       H  0.40323285  0.68584308  0.58063481     0.08700
H1548       H  0.35430832  0.68168514  0.58011638     0.12300
H1549       H  0.44463613  0.78099371  0.58292299     0.12300
H1550       H  0.41421604  0.80437695  0.58319459     0.12000
H1551       H  0.36553415  0.80044277  0.58327198     0.12600
H1552       H  0.32358078  0.70522010  0.58074734     0.14500
C1553       C  0.09037637  0.75225225  0.58490121    -0.05500
C1554       C  0.11556419  0.78066935  0.58539461    -0.05400
C1555       C  0.14396147  0.78422993  0.58588538    -0.23600
C1556       C  0.14771366  0.75942883  0.58594152     0.18600
C1557       C  0.12252303  0.73076000  0.58561233     0.15800
C1558       C  0.09408482  0.72735693  0.58507024    -0.18600
C1559       C  0.12618300  0.70593458  0.58572972    -0.20400
C1560       C  0.15451186  0.70941741  0.58593248    -0.13000
C1561       C  0.17978561  0.73778857  0.58603231     0.03700
C1562       C  0.17618297  0.76277733  0.58617677    -0.25100
H1563       H  0.11333614  0.80022254  0.58529748     0.08700
H1564       H  0.16298177  0.80638451  0.58615541     0.12300
H1565       H  0.07486339  0.70531456  0.58477243     0.12300
H1566       H  0.10712986  0.68379543  0.58553763     0.12000
H1567       H  0.15661013  0.68978932  0.58586468     0.12600
H1568       H  0.19546370  0.78478322  0.58627545     0.14500
C1569       C  0.50348160  0.73495211  0.63456100    -0.05500
C1570       C  0.00338984  0.71112786  0.64298881    -0.05400
C1571       C  0.00285660  0.70970458  0.66088675    -0.23600
C1572       C  0.00188731  0.73183059  0.67062367     0.18600
C1573       C  0.50119922  0.75543816  0.66217350     0.15800
C1574       C  0.50229240  0.75698430  0.64427423    -0.18600
C1575       C  0.49941971  0.77717708  0.67174593    -0.20400
C1576       C  0.49841545  0.77566721  0.68955042    -0.13000
C1577       C  0.99960172  0.75264494  0.69817705     0.03700
C1578       C  0.00144632  0.73075992  0.68861876    -0.25100
H1579       H  0.00432434  0.69391450  0.63573979     0.08700
H1580       H  0.00321928  0.69133543  0.66710239     0.12300
H1581       H  0.50200109  0.77527806  0.63788332     0.12300
H1582       H  0.49872308  0.79532787  0.66546269     0.12000
H1583       H  0.49699803  0.79279043  0.69661033     0.12600
H1584       H  0.00205327  0.71274626  0.69514345     0.14500
C1585       C  0.40527003  0.98113419  0.58499607    -0.05500
C1586       C  0.37834863  0.95416313  0.58553235    -0.05400
C1587       C  0.35129958  0.95366767  0.58537113    -0.23600
C1588       C  0.35056579  0.98014160  0.58464811     0.18600
C1589       C  0.37744137  0.50742727  0.58416944     0.15800
C1590       C  0.40458997  0.50776715  0.58437476    -0.18600
C1591       C  0.37667280  0.53389229  0.58341406    -0.20400
C1592       C  0.34958574  0.53335073  0.58308781    -0.13000
C1593       C  0.32267968  0.00634518  0.58353924     0.03700
C1594       C  0.32341691  0.97976589  0.58434703    -0.25100
H1595       H  0.37816130  0.93332772  0.58601245     0.08700
H1596       H  0.33093097  0.93253392  0.58575086     0.12300
H1597       H  0.42514029  0.52874493  0.58394179     0.12300
H1598       H  0.39703145  0.55503592  0.58304114     0.12000
H1599       H  0.34972333  0.55415450  0.58248659     0.12600
H1600       H  0.30288526  0.95876363  0.58470001     0.14500
C1601       C  0.05980655  0.98060457  0.58260972    -0.05500
C1602       C  0.05960944  0.95353938  0.58220569    -0.05400
C1603       C  0.08610230  0.95292276  0.58198815    -0.23600
C1604       C  0.11336667  0.97936874  0.58213785     0.18600
C1605       C  0.11386491  0.50671719  0.58241121     0.15800
C1606       C  0.08714442  0.50717045  0.58266720    -0.18600
C1607       C  0.14110348  0.53317199  0.58246661    -0.20400
C1608       C  0.16759437  0.53258367  0.58231894    -0.13000
C1609       C  0.16743742  0.00553806  0.58217324     0.03700
C1610       C  0.14011565  0.97893729  0.58206060    -0.25100
H1611       H  0.03890502  0.93273794  0.58213379     0.08700
H1612       H  0.08525098  0.93173979  0.58174243     0.12300
H1613       H  0.08766597  0.52820418  0.58293601     0.12300
H1614       H  0.14193790  0.55434837  0.58265622     0.12000
H1615       H  0.18827920  0.55340430  0.58242516     0.12600
H1616       H  0.13963757  0.95792209  0.58190139     0.14500
C1617       C  0.49034942  0.00042494  0.69938987    -0.05500
C1618       C  0.48652690  0.02225333  0.69120502    -0.05400
C1619       C  0.48494715  0.02295118  0.67336578    -0.23600
C1620       C  0.48647632  0.00140242  0.66338383     0.18600
C1621       C  0.98942280  0.47879698  0.67151400     0.15800
C1622       C  0.99180965  0.47871854  0.68943694    -0.18600
C1623       C  0.98981071  0.45660255  0.66156740    -0.20400
C1624       C  0.98747656  0.45688303  0.64375012    -0.13000
C1625       C  0.98541119  0.97971113  0.63551118     0.03700
C1626       C  0.48499465  0.00199841  0.64542986    -0.25100
H1627       H  0.48532291  0.03917202  0.69861685     0.08700
H1628       H  0.48245322  0.04030498  0.66738234     0.12300
H1629       H  0.99435344  0.46155084  0.69565274     0.12300
H1630       H  0.99184681  0.43898721  0.66756456     0.12000
H1631       H  0.98790239  0.43953292  0.63635345     0.12600
H1632       H  0.48307287  0.01951217  0.63918767     0.14500
C1633       C  0.24081602  0.75252344  0.80166442    -0.05500
C1634       C  0.22439138  0.76446476  0.80893716    -0.05400
C1635       C  0.22313763  0.76702957  0.82662341    -0.23600
C1636       C  0.23826407  0.75768406  0.83742050     0.18600
C1637       C  0.25464027  0.74535242  0.83032199     0.15800
C1638       C  0.25580265  0.74281579  0.81247782    -0.18600
C1639       C  0.26967615  0.73595194  0.84121190    -0.20400
C1640       C  0.26851350  0.73878151  0.85893551    -0.13000
C1641       C  0.25231943  0.75108675  0.86608922     0.03700
C1642       C  0.23725201  0.76050814  0.85520052    -0.25100
H1643       H  0.21265047  0.77213779  0.80092700     0.08700
H1644       H  0.21044166  0.77647860  0.83185044     0.12300
H1645       H  0.26854388  0.73357080  0.80703731     0.12300
H1646       H  0.28231623  0.72640783  0.83603296     0.12000
H1647       H  0.28023945  0.73123170  0.86705151     0.12600
H1648       H  0.22460112  0.76992937  0.86054611     0.14500
C1649       C  0.24852654  0.00830385  0.86513229    -0.05500
C1650       C  0.23317463  0.52111904  0.85747287    -0.05400
C1651       C  0.23164590  0.52262888  0.83969127    -0.23600
C1652       C  0.24550223  0.51141440  0.82919018     0.18600
C1653       C  0.26144205  0.99895999  0.83675409     0.15800
C1654       C  0.26284775  0.99746899  0.85464514    -0.18600
C1655       C  0.27540197  0.98784221  0.82628889    -0.20400
C1656       C  0.27303703  0.98839048  0.80853074    -0.13000
C1657       C  0.25678325  0.00019306  0.80083039     0.03700
C1658       C  0.24336340  0.51207053  0.81127958    -0.25100
H1659       H  0.22196642  0.52969370  0.86524642     0.08700
H1660       H  0.21939095  0.53232393  0.83416149     0.12300
H1661       H  0.27491461  0.98772364  0.86038110     0.12300
H1662       H  0.28787647  0.97839705  0.83183446     0.12000
H1663       H  0.28386440  0.97935040  0.80080218     0.12600
H1664       H  0.23087707  0.52133479  0.80551602     0.14500
C1665       C  0.42085457  0.67775649  0.91771513    -0.05500
C1666       C  0.39592167  0.68144568  0.91696937    -0.05400
C1667       C  0.36733966  0.65697838  0.91704209    -0.23600
C1668       C  0.36309715  0.62829997  0.91782454     0.18600
C1669       C  0.38799140  0.62431927  0.91862371     0.15800
C1670       C  0.41667131  0.64902758  0.91860520    -0.18600
C1671       C  0.38379167  0.59566271  0.91931970    -0.20400
C1672       C  0.35525791  0.57117995  0.91908751    -0.13000
C1673       C  0.33031120  0.57482150  0.91823221     0.03700
C1674       C  0.33441634  0.60355128  0.91770156    -0.25100
H1675       H  0.39848115  0.70333713  0.91628585     0.08700
H1676       H  0.34856946  0.66049878  0.91641399     0.12300
H1677       H  0.43567684  0.64586546  0.91917339     0.12300
H1678       H  0.40257330  0.59216091  0.91995061     0.12000
H1679       H  0.35274898  0.54929454  0.91955987     0.12600
H1680       H  0.31538406  0.60665600  0.91700392     0.14500
C1681       C  0.08306437  0.82280788  0.91558435    -0.05500
C1682       C  0.10906798  0.82103040  0.91526873    -0.05400
C1683       C  0.13682840  0.84676446  0.91501392    -0.23600
C1684       C  0.13904991  0.87470663  0.91510039     0.18600
C1685       C  0.11304002  0.87672431  0.91538691     0.15800
C1686       C  0.08529706  0.85083137  0.91560416    -0.18600
C1687       C  0.11520140  0.90461900  0.91552137    -0.20400
C1688       C  0.14291060  0.93035720  0.91546412    -0.13000
C1689       C  0.16895803  0.92866699  0.91523279     0.03700
C1690       C  0.16680509  0.90065749  0.91499182    -0.25100
H1691       H  0.10795439  0.79974129  0.91523596     0.08700
H1692       H  0.15656066  0.84481008  0.91479611     0.12300
H1693       H  0.06542847  0.85256055  0.91585285     0.12300
H1694       H  0.09544844  0.90653827  0.91573950     0.12000
H1695       H  0.14394525  0.95160721  0.91565791     0.12600
H1696       H  0.18671571  0.89900103  0.91483376     0.14500
C1697       C  0.50360079  0.74574779  0.86525601    -0.05500
C1698       C  0.01894037  0.73312455  0.85736950    -0.05400
C1699       C  0.02009363  0.73167474  0.83957227    -0.23600
C1700       C  0.00577707  0.74266515  0.82928793     0.18600
C1701       C  0.49027542  0.75540188  0.83707041     0.15800
C1702       C  0.48937209  0.75696667  0.85498212    -0.18600
C1703       C  0.47591737  0.76635025  0.82679736    -0.20400
C1704       C  0.47700285  0.76484457  0.80900560    -0.13000
C1705       C  0.49241627  0.75231113  0.80110036     0.03700
C1706       C  0.00672546  0.74116064  0.81136930    -0.25100
H1707       H  0.03023847  0.72445068  0.86498087     0.08700
H1708       H  0.03214504  0.72190577  0.83386036     0.12300
H1709       H  0.47744840  0.76671303  0.86090148     0.12300
H1710       H  0.46388604  0.77613692  0.83251465     0.12000
H1711       H  0.46572597  0.77356366  0.80141362     0.12600
H1712       H  0.01874787  0.73152517  0.80544564     0.14500
C1713       C  0.42161378  0.92719448  0.91716258    -0.05500
C1714       C  0.42498261  0.90210219  0.91628451    -0.05400
C1715       C  0.40030819  0.87365566  0.91621967    -0.23600
C1716       C  0.37172633  0.86968955  0.91706649     0.18600
C1717       C  0.36800332  0.89472483  0.91785925     0.15800
C1718       C  0.39293902  0.92330153  0.91788819    -0.18600
C1719       C  0.33938856  0.89072089  0.91863545    -0.20400
C1720       C  0.31472052  0.86223136  0.91862354    -0.13000
C1721       C  0.31815219  0.83715844  0.91791601     0.03700
C1722       C  0.34683147  0.84111259  0.91714445    -0.25100
H1723       H  0.44678770  0.90443460  0.91565112     0.08700
H1724       H  0.40360264  0.85474860  0.91555096     0.12300
H1725       H  0.39000761  0.94244078  0.91855597     0.12300
H1726       H  0.33606895  0.90961703  0.91924458     0.12000
H1727       H  0.29288658  0.85983494  0.91923032     0.12600
H1728       H  0.34979910  0.82199336  0.91650531     0.14500
C1729       C  0.06747793  0.58890689  0.91853701    -0.05500
C1730       C  0.06589506  0.61468593  0.92133143    -0.05400
C1731       C  0.09164860  0.64239893  0.92170978    -0.23600
C1732       C  0.11940621  0.64479484  0.91925488     0.18600
C1733       C  0.12128627  0.61900197  0.91659891     0.15800
C1734       C  0.09535918  0.59128365  0.91626023    -0.18600
C1735       C  0.14906793  0.62137832  0.91427441    -0.20400
C1736       C  0.17479399  0.64911620  0.91446535    -0.13000
C1737       C  0.17312087  0.67492046  0.91684087     0.03700
C1738       C  0.14529348  0.67254821  0.91931374    -0.25100
H1739       H  0.04473510  0.61343067  0.92323443     0.08700
H1740       H  0.08984434  0.66196613  0.92384966     0.12300
H1741       H  0.09692930  0.57157173  0.91414105     0.12300
H1742       H  0.15089184  0.60179609  0.91225453     0.12000
H1743       H  0.19597092  0.65041462  0.91254256     0.12600
H1744       H  0.14375718  0.69230639  0.92132582     0.14500
C1745       C  0.99270116  0.00994624  0.86617709    -0.05500
C1746       C  0.47768950  0.02258213  0.85793976    -0.05400
C1747       C  0.47655547  0.02333695  0.84013600    -0.23600
C1748       C  0.49042768  0.01148805  0.83017202     0.18600
C1749       C  0.00562929  0.49871141  0.83823869     0.15800
C1750       C  0.00665763  0.49798746  0.85620255    -0.18600
C1751       C  0.01950280  0.48690812  0.82816871    -0.20400
C1752       C  0.01829409  0.48774200  0.81030559    -0.13000
C1753       C  0.50313397  0.00033137  0.80218401     0.03700
C1754       C  0.48926894  0.01219579  0.81226784    -0.25100
H1755       H  0.46672755  0.03193144  0.86527602     0.08700
H1756       H  0.46480173  0.03320630  0.83415865     0.12300
H1757       H  0.01828777  0.48815597  0.86238229     0.12300
H1758       H  0.03125733  0.47700355  0.83409988     0.12000
H1759       H  0.02910697  0.47837891  0.80284342     0.12600
H1760       H  0.47749991  0.02197912  0.80619622     0.14500
C1761       C  0.23573910  0.75396167  0.96818113    -0.05500
C1762       C  0.21344038  0.75807513  0.97550107    -0.05400
C1763       C  0.20781624  0.75419067  0.99308813    -0.23600
C1764       C  0.22462243  0.74644283  0.00365844     0.18600
C1765       C  0.24729375  0.74258620  0.99637100     0.15800
C1766       C  0.25252912  0.74615384  0.97874380    -0.18600
C1767       C  0.26464967  0.73552981  0.00684611    -0.20400
C1768       C  0.26017431  0.73310433  0.02446479    -0.13000
C1769       C  0.23783855  0.73698141  0.03188077     0.03700
C1770       C  0.21965486  0.74307616  0.02140512    -0.25100
H1771       H  0.20002279  0.76383015  0.96758662     0.08700
H1772       H  0.19041302  0.75733708  0.99842032     0.12300
H1773       H  0.26979489  0.74291210  0.97326044     0.12300
H1774       H  0.28207206  0.73246213  0.00145729     0.12000
H1775       H  0.27431849  0.72829990  0.03237371     0.12600
H1776       H  0.20259930  0.74639314  0.02712504     0.14500
C1777       C  0.25519368  0.91958817  0.08345775    -0.05500
C1778       C  0.28241756  0.92009626  0.08388503    -0.05400
C1779       C  0.28339711  0.89383052  0.08379250    -0.23600
C1780       C  0.25715934  0.86644341  0.08334249     0.18600
C1781       C  0.22961902  0.86557137  0.08295600     0.15800
C1782       C  0.22879138  0.89212028  0.08297368    -0.18600
C1783       C  0.20339066  0.83813841  0.08257533    -0.20400
C1784       C  0.20442169  0.81186856  0.08260720    -0.13000
C1785       C  0.23169331  0.81244936  0.08298973     0.03700
C1786       C  0.25803454  0.83994429  0.08331619    -0.25100
H1787       H  0.30310925  0.94090207  0.08421445     0.08700
H1788       H  0.30470954  0.89495794  0.08408961     0.12300
H1789       H  0.20765074  0.89137791  0.08265872     0.12300
H1790       H  0.18206352  0.83697992  0.08228002     0.12000
H1791       H  0.18376502  0.79102515  0.08233185     0.12600
H1792       H  0.27920788  0.84075539  0.08361184     0.14500
C1793       C  0.23244181  0.65815389  0.08267931    -0.05500
C1794       C  0.20533240  0.63145712  0.08143440    -0.05400
C1795       C  0.20451150  0.60428826  0.08103214    -0.23600
C1796       C  0.23079354  0.60322544  0.08186036     0.18600
C1797       C  0.25820217  0.62988164  0.08313611     0.15800
C1798       C  0.25886845  0.65715626  0.08353493    -0.18600
C1799       C  0.28447172  0.62877753  0.08400119    -0.20400
C1800       C  0.28361239  0.60156697  0.08365134    -0.13000
C1801       C  0.25648060  0.57489360  0.08238991     0.03700
C1802       C  0.23010064  0.57595443  0.08146831    -0.25100
H1803       H  0.18463456  0.63153432  0.08075137     0.08700
H1804       H  0.18329420  0.58409907  0.08006591     0.12300
H1805       H  0.27992642  0.67754507  0.08448684     0.12300
H1806       H  0.30569476  0.64895530  0.08498564     0.12000
H1807       H  0.30427366  0.60142762  0.08439648     0.12600
H1808       H  0.20901831  0.55558615  0.08054138     0.14500
C1809       C  0.24668891  0.99647437  0.96773773    -0.05500
C1810       C  0.22093766  0.99248013  0.97582224    -0.05400
C1811       C  0.21878971  0.99154286  0.99358366    -0.23600
C1812       C  0.24269101  0.99534013  0.00360346     0.18600
C1813       C  0.26893134  0.49969036  0.99566845     0.15800
C1814       C  0.27058970  0.49968483  0.97768693    -0.18600
C1815       C  0.29308139  0.50444927  0.00590134    -0.20400
C1816       C  0.29115982  0.50480564  0.02378172    -0.13000
C1817       C  0.26490196  0.99991427  0.03168216     0.03700
C1818       C  0.24077354  0.99516640  0.02145301    -0.25100
H1819       H  0.20233926  0.98998412  0.96832764     0.08700
H1820       H  0.19858281  0.98828819  0.99948559     0.12300
H1821       H  0.29066390  0.50319910  0.97146949     0.12300
H1822       H  0.31345775  0.50802327  0.00008701     0.12000
H1823       H  0.31000957  0.50844168  0.03142890     0.12600
H1824       H  0.22048842  0.99166060  0.02739503     0.14500
C1825       C  0.50494163  0.75439720  0.96799943    -0.05500
C1826       C  0.02958712  0.75590141  0.97623482    -0.05400
C1827       C  0.03153811  0.75670598  0.99401857    -0.23600
C1828       C  0.00848426  0.75525210  0.00390841     0.18600
C1829       C  0.48340231  0.75351055  0.99581169     0.15800
C1830       C  0.48202806  0.75366240  0.97783139    -0.18600
C1831       C  0.46000444  0.75110867  0.00587687    -0.20400
C1832       C  0.46143630  0.75033039  0.02375788    -0.13000
C1833       C  0.48652063  0.75252315  0.03183117     0.03700
C1834       C  0.01001675  0.75513210  0.02178027    -0.25100
H1835       H  0.04749633  0.75659306  0.96885444     0.08700
H1836       H  0.05087474  0.75799652  0.00003747     0.12300
H1837       H  0.46282086  0.75218363  0.97151832     0.12300
H1838       H  0.44054541  0.74963466  0.99992696     0.12000
H1839       H  0.44318369  0.74853119  0.03128022     0.12600
H1840       H  0.02941251  0.75665282  0.02788213     0.14500
C1841       C  0.01654363  0.93866719  0.08336660    -0.05500
C1842       C  0.04389267  0.93945523  0.08269895    -0.05400
C1843       C  0.04511376  0.91333621  0.08241411    -0.23600
C1844       C  0.01900629  0.88586071  0.08287291     0.18600
C1845       C  0.49136103  0.88474973  0.08357448     0.15800
C1846       C  0.49028352  0.91113035  0.08375039    -0.18600
C1847       C  0.46526775  0.85725432  0.08415129    -0.20400
C1848       C  0.46653290  0.83114083  0.08408721    -0.13000
C1849       C  0.49390022  0.83196723  0.08336145     0.03700
C1850       C  0.02010762  0.85950601  0.08270537    -0.25100
H1851       H  0.06448031  0.96035773  0.08234378     0.08700
H1852       H  0.06649783  0.91464525  0.08187811     0.12300
H1853       H  0.46906908  0.91020850  0.08428871     0.12300
H1854       H  0.44387741  0.85592961  0.08469799     0.12000
H1855       H  0.44597502  0.81022093  0.08456431     0.12600
H1856       H  0.04133744  0.86045948  0.08217347     0.14500
C1857       C  0.49427619  0.67759785  0.08283995    -0.05500
C1858       C  0.46698354  0.65102514  0.08375096    -0.05400
C1859       C  0.46581989  0.62369021  0.08399531    -0.23600
C1860       C  0.49193761  0.62231024  0.08337340     0.18600
C1861       C  0.01953158  0.64883419  0.08245396     0.15800
C1862       C  0.02054121  0.67628654  0.08215790    -0.18600
C1863       C  0.04565023  0.64742900  0.08190483    -0.20400
C1864       C  0.04447357  0.62007635  0.08230867    -0.13000
C1865       C  0.01715981  0.59352628  0.08321031     0.03700
C1866       C  0.49090930  0.59486438  0.08369935    -0.25100
H1867       H  0.44639039  0.65132368  0.08429913     0.08700
H1868       H  0.44446594  0.60362281  0.08471419     0.12300
H1869       H  0.04173467  0.69656553  0.08148213     0.12300
H1870       H  0.06701169  0.66748763  0.08119263     0.12000
H1871       H  0.06505043  0.61973428  0.08186304     0.12600
H1872       H  0.46970395  0.57460239  0.08440460     0.14500
C1873       C  0.01950921  0.51630097  0.03232724    -0.05500
C1874       C  0.04475613  0.52031271  0.02356723    -0.05400
C1875       C  0.04472902  0.51865194  0.00568855    -0.23600
C1876       C  0.01960319  0.51340334  0.99629778     0.18600
C1877       C  0.49434138  0.00992298  0.00504422     0.15800
C1878       C  0.49436942  0.01109146  0.02293635    -0.18600
C1879       C  0.46947608  0.00551483  0.99576304    -0.20400
C1880       C  0.46967290  0.00481391  0.97793857    -0.13000
C1881       C  0.99445716  0.00784872  0.96908838     0.03700
C1882       C  0.01933555  0.51188713  0.97833894    -0.25100
H1883       H  0.06431562  0.52420952  0.03055814     0.08700
H1884       H  0.06435285  0.52152256  0.99921261     0.12300
H1885       H  0.47482309  0.00817184  0.02955734     0.12300
H1886       H  0.44997949  0.00290031  0.00228211     0.12000
H1887       H  0.45029074  0.00166683  0.97103512     0.12600
H1888       H  0.03867357  0.51462049  0.97156162     0.14500
C1889       C  0.25166580  0.73686149  0.46815208    -0.05500
C1890       C  0.23556104  0.70878774  0.47576845    -0.05400
C1891       C  0.23369993  0.70577849  0.49357074    -0.23600
C1892       C  0.24789721  0.73078902  0.50414699     0.18600
C1893       C  0.26391784  0.75916876  0.49665858     0.15800
C1894       C  0.26572333  0.76202896  0.47875049    -0.18600
C1895       C  0.27799531  0.78420019  0.50721879    -0.20400
C1896       C  0.27646363  0.78115988  0.52500918    -0.13000
C1897       C  0.26091794  0.75302621  0.53263869     0.03700
C1898       C  0.24652073  0.72788460  0.52206394    -0.25100
H1899       H  0.22446806  0.68904413  0.46794682     0.08700
H1900       H  0.22124922  0.68384390  0.49906558     0.12300
H1901       H  0.27817314  0.78384367  0.47308851     0.12300
H1902       H  0.29033769  0.80614704  0.50172263     0.12000
H1903       H  0.28777427  0.80091071  0.53281218     0.12600
H1904       H  0.23437199  0.70606651  0.52775114     0.14500
C1905       C  0.24484225  0.01370987  0.46700680    -0.05500
C1906       C  0.25434415  0.54134959  0.47479591    -0.05400
C1907       C  0.25585028  0.54422716  0.49257223    -0.23600
C1908       C  0.24788296  0.51951907  0.50295759     0.18600
C1909       C  0.23809592  0.99154079  0.49532758     0.15800
C1910       C  0.23665485  0.98880011  0.47740417    -0.18600
C1911       C  0.22994011  0.96682016  0.50577758    -0.20400
C1912       C  0.23146973  0.96978924  0.52358716    -0.13000
C1913       C  0.24137025  0.99756050  0.53129570     0.03700
C1914       C  0.24955685  0.52236692  0.52084269    -0.25100
H1915       H  0.26070621  0.56089417  0.46712649     0.08700
H1916       H  0.26330883  0.56582224  0.49819464     0.12300
H1917       H  0.22924722  0.96735073  0.47158111     0.12300
H1918       H  0.22235537  0.94518224  0.50018495     0.12000
H1919       H  0.22503106  0.95031861  0.53134094     0.12600
H1920       H  0.25705315  0.54387478  0.52661211     0.14500
C1921       C  0.50676474  0.73612730  0.46746364    -0.05500
C1922       C  0.49515533  0.70797849  0.47497223    -0.05400
C1923       C  0.49407259  0.70471913  0.49271060    -0.23600
C1924       C  0.50447692  0.72953648  0.50335771     0.18600
C1925       C  0.01624537  0.75799275  0.49601365     0.15800
C1926       C  0.01742493  0.76114405  0.47811044    -0.18600
C1927       C  0.02649994  0.78276358  0.50672555    -0.20400
C1928       C  0.02514050  0.77939435  0.52449909    -0.13000
C1929       C  0.51352562  0.75119793  0.53193553     0.03700
C1930       C  0.50320964  0.72631934  0.52122176    -0.25100
H1931       H  0.48684367  0.68831395  0.46710453     0.08700
H1932       H  0.48499079  0.68274219  0.49809709     0.12300
H1933       H  0.02633940  0.78295066  0.47250036     0.12300
H1934       H  0.03553424  0.80475074  0.50136595     0.12000
H1935       H  0.03317244  0.79894345  0.53243954     0.12600
H1936       H  0.49413409  0.70444034  0.52676089     0.14500
C1937       C  0.43391833  0.75001892  0.41802589    -0.05500
C1938       C  0.43699676  0.77837350  0.41864042    -0.05400
C1939       C  0.41212964  0.78182303  0.41886205    -0.23600
C1940       C  0.38366947  0.75698124  0.41844077     0.18600
C1941       C  0.38024697  0.72833736  0.41792714     0.15800
C1942       C  0.40536844  0.72502554  0.41776527    -0.18600
C1943       C  0.35174594  0.70351319  0.41745288    -0.20400
C1944       C  0.32688672  0.70702732  0.41735384    -0.13000
C1945       C  0.33004588  0.73542003  0.41779093     0.03700
C1946       C  0.35860100  0.76033710  0.41841167    -0.25100
H1947       H  0.45871190  0.79800488  0.41887256     0.08700
H1948       H  0.41517502  0.80394243  0.41926868     0.12300
H1949       H  0.40267351  0.70304003  0.41729323     0.12300
H1950       H  0.34867191  0.68138284  0.41707094     0.12000
H1951       H  0.30513971  0.68745637  0.41690896     0.12600
H1952       H  0.36136154  0.78235652  0.41873765     0.14500
C1953       C  0.18535772  0.75327143  0.41590938    -0.05500
C1954       C  0.18711605  0.78039548  0.41983891    -0.05400
C1955       C  0.16158220  0.78276563  0.42018404    -0.23600
C1956       C  0.13386305  0.75806180  0.41656327     0.18600
C1957       C  0.13188256  0.73075181  0.41244955     0.15800
C1958       C  0.15759173  0.72854128  0.41214929    -0.18600
C1959       C  0.10418055  0.70603411  0.40884283    -0.20400
C1960       C  0.07857826  0.70823119  0.40950816    -0.13000
C1961       C  0.08024680  0.73521719  0.41369598     0.03700
C1962       C  0.10807806  0.76014273  0.41710017    -0.25100
H1963       H  0.20821263  0.79972679  0.42283118     0.08700
H1964       H  0.16349794  0.80387567  0.42337474     0.12300
H1965       H  0.15592914  0.70749885  0.40905045     0.12300
H1966       H  0.10228875  0.68494967  0.40561007     0.12000
H1967       H  0.05744890  0.68878724  0.40672910     0.12600
H1968       H  0.10967928  0.78110579  0.42034846     0.14500
C1969       C  0.98148460  0.98238869  0.53230418    -0.05500
C1970       C  0.46846922  0.95556794  0.52315823    -0.05400
C1971       C  0.46804954  0.95538310  0.50528783    -0.23600
C1972       C  0.48056295  0.98202603  0.49614396     0.18600
C1973       C  0.99365932  0.50918525  0.50511684     0.15800
C1974       C  0.99410873  0.50921594  0.52313549    -0.18600
C1975       C  0.00603953  0.53579544  0.49588165    -0.20400
C1976       C  0.00546680  0.53549491  0.47795701    -0.13000
C1977       C  0.99259684  0.00858961  0.46890567     0.03700
C1978       C  0.48016812  0.98190403  0.47817391    -0.25100
H1979       H  0.45863183  0.93460085  0.52983297     0.08700
H1980       H  0.45790449  0.93434910  0.49861335     0.12300
H1981       H  0.00421036  0.53008268  0.52999012     0.12300
H1982       H  0.01617364  0.55685856  0.50251989     0.12000
H1983       H  0.01521847  0.55635291  0.47117368     0.12600
H1984       H  0.47010600  0.96094291  0.47141329     0.14500
C1985       C  0.32328889  0.51669339  0.41559504    -0.05500
C1986       C  0.34889630  0.54480279  0.41531128    -0.05400
C1987       C  0.37699933  0.54760484  0.41557124    -0.23600
C1988       C  0.37997247  0.52233824  0.41614234     0.18600
C1989       C  0.35434969  0.99400368  0.41644449     0.15800
C1990       C  0.32626272  0.99137426  0.41614706    -0.18600
C1991       C  0.35720414  0.96870863  0.41705775    -0.20400
C1992       C  0.38519386  0.97138923  0.41734519    -0.13000
C1993       C  0.41087276  0.49940713  0.41700399     0.03700
C1994       C  0.40807336  0.52487106  0.41641244    -0.25100
H1995       H  0.34721336  0.56465842  0.41489831     0.08700
H1996       H  0.39638810  0.56951805  0.41534149     0.12300
H1997       H  0.30671377  0.96955889  0.41639743     0.12300
H1998       H  0.33777608  0.94682385  0.41730628     0.12000
H1999       H  0.38671773  0.95144770  0.41778994     0.12600
H2000       H  0.42770085  0.54662908  0.41615602     0.14500
C2001       C  0.07193028  0.51388785  0.41667595    -0.05500
C2002       C  0.09704044  0.54181419  0.41393874    -0.05400
C2003       C  0.12521802  0.54501109  0.41321945    -0.23600
C2004       C  0.12884376  0.52035236  0.41529009     0.18600
C2005       C  0.10380309  0.99217477  0.41817834     0.15800
C2006       C  0.07549841  0.98910099  0.41882191    -0.18600
C2007       C  0.10752243  0.96756057  0.42032118    -0.20400
C2008       C  0.13575465  0.97080414  0.41951875    -0.13000
C2009       C  0.16077587  0.49871743  0.41657631     0.03700
C2010       C  0.15710611  0.52343757  0.41450461    -0.25100
H2011       H  0.09490006  0.56125400  0.41220470     0.08700
H2012       H  0.14416474  0.56676971  0.41100556     0.12300
H2013       H  0.05631580  0.96747032  0.42099318     0.12300
H2014       H  0.08861228  0.94580655  0.42259854     0.12000
H2015       H  0.13799666  0.95142296  0.42124822     0.12600
H2016       H  0.17621813  0.54509446  0.41227461     0.14500
C2017       C  0.25764988  0.74978162  0.19786949    -0.05500
C2018       C  0.28431719  0.76545202  0.18878011    -0.05400
C2019       C  0.28437424  0.76538054  0.17089613    -0.23600
C2020       C  0.25776827  0.74958099  0.16177032     0.18600
C2021       C  0.23083049  0.73354848  0.17074472     0.15800
C2022       C  0.23094161  0.73378187  0.18870554    -0.18600
C2023       C  0.20424611  0.71764366  0.16159127    -0.20400
C2024       C  0.20429306  0.71790923  0.14369548    -0.13000
C2025       C  0.23093261  0.73401549  0.13464183     0.03700
C2026       C  0.25764691  0.74966246  0.14382735    -0.25100
H2027       H  0.30516232  0.77784361  0.19550208     0.08700
H2028       H  0.30524532  0.77774349  0.16419890     0.12300
H2029       H  0.21019964  0.72140852  0.19553507     0.12300
H2030       H  0.18338833  0.70510573  0.16827520     0.12000
H2031       H  0.18347633  0.70553773  0.13694264     0.12600
H2032       H  0.27841309  0.76210668  0.13702801     0.14500
C2033       C  0.25337638  0.74017826  0.30081473    -0.05500
C2034       C  0.22946769  0.71503352  0.30818958    -0.05400
C2035       C  0.22692405  0.71159134  0.32592900    -0.23600
C2036       C  0.24792103  0.73356532  0.33668521     0.18600
C2037       C  0.27196716  0.75911830  0.32943747     0.15800
C2038       C  0.27484286  0.76204007  0.31152706    -0.18600
C2039       C  0.29242460  0.78147538  0.34025123    -0.20400
C2040       C  0.28905678  0.77860595  0.35802551    -0.13000
C2041       C  0.26549426  0.75309886  0.36536127     0.03700
C2042       C  0.24505739  0.73055097  0.35455854    -0.25100
H2043       H  0.21274888  0.69784579  0.30017745     0.08700
H2044       H  0.20831845  0.69189642  0.33123418     0.12300
H2045       H  0.29321066  0.78162873  0.30594679     0.12300
H2046       H  0.31091319  0.80128683  0.33496712     0.12000
H2047       H  0.30514944  0.79624830  0.36606522     0.12600
H2048       H  0.22665500  0.71088132  0.36005005     0.14500
C2049       C  0.25606538  0.82424312  0.25184862    -0.05500
C2050       C  0.28309033  0.85088041  0.25370915    -0.05400
C2051       C  0.28398688  0.87808152  0.25402634    -0.23600
C2052       C  0.25788145  0.87930305  0.25241131     0.18600
C2053       C  0.23050296  0.85272892  0.25065163     0.15800
C2054       C  0.22972949  0.82535598  0.25045985    -0.18600
C2055       C  0.20443395  0.85405965  0.24894134    -0.20400
C2056       C  0.20550897  0.88139807  0.24882517    -0.13000
C2057       C  0.23264778  0.90798647  0.25049981     0.03700
C2058       C  0.25877687  0.90668524  0.25238380    -0.25100
H2059       H  0.30371333  0.85074732  0.25486069     0.08700
H2060       H  0.30516863  0.89819926  0.25540707     0.12300
H2061       H  0.20873753  0.80503321  0.24900510     0.12300
H2062       H  0.18322186  0.83397170  0.24758549     0.12000
H2063       H  0.18501084  0.88170306  0.24739491     0.12600
H2064       H  0.27985379  0.92696845  0.25367112     0.14500
C2065       C  0.23487615  0.56377448  0.24851158    -0.05500
C2066       C  0.20790279  0.56347592  0.25035436    -0.05400
C2067       C  0.20705393  0.58979682  0.25038662    -0.23600
C2068       C  0.23315349  0.61701722  0.24848810     0.18600
C2069       C  0.26044159  0.61770887  0.24649636     0.15800
C2070       C  0.26115975  0.59108883  0.24656278    -0.18600
C2071       C  0.28650805  0.64504045  0.24457412    -0.20400
C2072       C  0.28558663  0.67139144  0.24486758    -0.13000
C2073       C  0.25857025  0.67092708  0.24699823     0.03700
C2074       C  0.23238092  0.64353794  0.24866883    -0.25100
H2075       H  0.18734612  0.54280222  0.25192896     0.08700
H2076       H  0.18594985  0.58884735  0.25194552     0.12300
H2077       H  0.28209086  0.59163718  0.24506474     0.12300
H2078       H  0.30763417  0.64606170  0.24296195     0.12000
H2079       H  0.30608157  0.69218108  0.24346368     0.12600
H2080       H  0.21140555  0.64283950  0.25033722     0.14500
C2081       C  0.24247052  0.49318421  0.13375597    -0.05500
C2082       C  0.21444731  0.98620047  0.14003366    -0.05400
C2083       C  0.20893901  0.98417830  0.15758465    -0.23600
C2084       C  0.23128866  0.98887059  0.16922035     0.18600
C2085       C  0.25963179  0.49609258  0.16306881     0.15800
C2086       C  0.26510341  0.49836852  0.14538351    -0.18600
C2087       C  0.28196375  0.50076349  0.17472080    -0.20400
C2088       C  0.27632737  0.49840321  0.19227367    -0.13000
C2089       C  0.24821514  0.49118133  0.19853351     0.03700
C2090       C  0.22573524  0.98638656  0.18688976    -0.25100
H2091       H  0.19668829  0.98232351  0.13133691     0.08700
H2092       H  0.18713450  0.97876112  0.16204619     0.12300
H2093       H  0.28676781  0.50370730  0.14068366     0.12300
H2094       H  0.30379331  0.50624908  0.17026906     0.12000
H2095       H  0.29403028  0.50213365  0.20097682     0.12600
H2096       H  0.20403036  0.98095514  0.19156332     0.14500
C2097       C  0.24196230  0.50418143  0.36416504    -0.05500
C2098       C  0.26663709  0.52669130  0.35566046    -0.05400
C2099       C  0.26849383  0.52679857  0.33789030    -0.23600
C2100       C  0.24535682  0.50473565  0.32824353     0.18600
C2101       C  0.22005176  0.98218668  0.33655898     0.15800
C2102       C  0.21871343  0.98173897  0.35457038    -0.18600
C2103       C  0.19659851  0.96074466  0.32665566    -0.20400
C2104       C  0.19841104  0.96153479  0.30873762    -0.13000
C2105       C  0.22390919  0.48345295  0.30049276     0.03700
C2106       C  0.24721209  0.50501743  0.31038522    -0.25100
H2107       H  0.28478900  0.54408962  0.36283088     0.08700
H2108       H  0.28797275  0.54427132  0.33168435     0.12300
H2109       H  0.19946908  0.96448076  0.36107377     0.12300
H2110       H  0.17690692  0.94339996  0.33275418     0.12000
H2111       H  0.18018803  0.94468579  0.30135087     0.12600
H2112       H  0.26684999  0.52226017  0.30415548     0.14500
C2113       C  0.50056932  0.75284422  0.19886946    -0.05500
C2114       C  0.47139018  0.73720255  0.19254982    -0.05400
C2115       C  0.46575387  0.73540279  0.17499746    -0.23600
C2116       C  0.48918614  0.74919051  0.16338315     0.18600
C2117       C  0.01859798  0.76507183  0.16959703     0.15800
C2118       C  0.02410875  0.76680555  0.18726621    -0.18600
C2119       C  0.04205158  0.77890676  0.15802530    -0.20400
C2120       C  0.03651426  0.77682380  0.14048006    -0.13000
C2121       C  0.50740076  0.76089898  0.13409773     0.03700
C2122       C  0.48374452  0.74723993  0.14567789    -0.25100
H2123       H  0.45278613  0.72630697  0.20120076     0.08700
H2124       H  0.44306577  0.72317459  0.17051650     0.12300
H2125       H  0.04667770  0.77901790  0.19195927     0.12300
H2126       H  0.06471909  0.79123485  0.16253195     0.12000
H2127       H  0.05519099  0.78766767  0.13187516     0.12600
H2128       H  0.46120938  0.73494966  0.14094113     0.14500
C2129       C  0.50523262  0.74433162  0.36457935    -0.05500
C2130       C  0.48391331  0.71884604  0.35595994    -0.05400
C2131       C  0.48313793  0.71757132  0.33817940    -0.23600
C2132       C  0.50385787  0.74166187  0.32859673     0.18600
C2133       C  0.02556678  0.76748969  0.33697708     0.15800
C2134       C  0.02594222  0.76881169  0.35498778    -0.18600
C2135       C  0.04657002  0.79128723  0.32713952    -0.20400
C2136       C  0.04589677  0.78947218  0.30922016    -0.13000
C2137       C  0.52393271  0.76403660  0.30091744     0.03700
C2138       C  0.50308333  0.74022096  0.31072979    -0.25100
H2139       H  0.46769151  0.69970219  0.36299640     0.08700
H2140       H  0.46640995  0.69761808  0.33192082     0.12300
H2141       H  0.04261123  0.78848964  0.36149327     0.12300
H2142       H  0.06343584  0.81127290  0.33328847     0.12000
H2143       H  0.06200785  0.80818384  0.30185266     0.12600
H2144       H  0.48615745  0.72042291  0.30441539     0.14500
C2145       C  0.00683767  0.83186693  0.25049983    -0.05500
C2146       C  0.47914036  0.82999401  0.25214216    -0.05400
C2147       C  0.47700236  0.85562915  0.25267065    -0.23600
C2148       C  0.50254174  0.88359081  0.25166093     0.18600
C2149       C  0.03052555  0.88577219  0.24996873     0.15800
C2150       C  0.03247809  0.85992566  0.24932141    -0.18600
C2151       C  0.05606681  0.91377354  0.24905242    -0.20400
C2152       C  0.05391327  0.93941432  0.24986205    -0.13000
C2153       C  0.52617079  0.93747850  0.25149823     0.03700
C2154       C  0.50055056  0.90939485  0.25235418    -0.25100
H2155       H  0.45909511  0.80868607  0.25303514     0.08700
H2156       H  0.45536534  0.85358258  0.25395440     0.12300
H2157       H  0.05401602  0.86170942  0.24805842     0.12300
H2158       H  0.07771128  0.91584814  0.24772609     0.12000
H2159       H  0.07393311  0.96075698  0.24903862     0.12600
H2160       H  0.47899018  0.90756606  0.25359071     0.14500
C2161       C  0.02300414  0.68618816  0.24918000    -0.05500
C2162       C  0.05147694  0.68949918  0.24893364    -0.05400
C2163       C  0.05517080  0.66476798  0.24879291    -0.23600
C2164       C  0.03045626  0.63621110  0.24885290     0.18600
C2165       C  0.50170845  0.63257418  0.24898854     0.15800
C2166       C  0.49815731  0.65754874  0.24918611    -0.18600
C2167       C  0.47699658  0.60400370  0.24897357    -0.20400
C2168       C  0.48070977  0.57927918  0.24897084    -0.13000
C2169       C  0.50919955  0.58262441  0.24900578     0.03700
C2170       C  0.03402462  0.61125710  0.24886405    -0.25100
H2171       H  0.07100652  0.71129202  0.24892115     0.08700
H2172       H  0.07736913  0.66799217  0.24867163     0.12300
H2173       H  0.47608544  0.65466957  0.24932473     0.12300
H2174       H  0.45479340  0.60076684  0.24903790     0.12000
H2175       H  0.46119280  0.55747693  0.24906406     0.12600
H2176       H  0.05610569  0.61415507  0.24885762     0.14500
C2177       C  0.00922744  0.51106045  0.13513379    -0.05500
C2178       C  0.48123411  0.99994541  0.14277895    -0.05400
C2179       C  0.47797294  0.99698949  0.16051319    -0.23600
C2180       C  0.50263485  0.00502554  0.17099198     0.18600
C2181       C  0.03089084  0.51612464  0.16346418     0.15800
C2182       C  0.03402697  0.51911520  0.14560362    -0.18600
C2183       C  0.05555630  0.52418947  0.17394870    -0.20400
C2184       C  0.05239019  0.52186242  0.19170839    -0.13000
C2185       C  0.02447029  0.51121329  0.19936134     0.03700
C2186       C  0.49956430  0.00245888  0.18886783    -0.25100
H2187       H  0.46173206  0.99352840  0.13502610     0.08700
H2188       H  0.45614809  0.98846355  0.16602857     0.12300
H2189       H  0.05569317  0.52753329  0.13987433     0.12300
H2190       H  0.07736384  0.53260283  0.16843074     0.12000
H2191       H  0.07192882  0.52860175  0.19948675     0.12600
H2192       H  0.47793609  0.99427457  0.19460370     0.14500
C2193       C  0.01439025  0.51453974  0.30215241    -0.05500
C2194       C  0.03698036  0.53955235  0.31051206    -0.05400
C2195       C  0.03612120  0.54308749  0.32818285    -0.23600
C2196       C  0.01293786  0.52136546  0.33794813     0.18600
C2197       C  0.49029608  0.99585805  0.32973961     0.15800
C2198       C  0.49090313  0.99281326  0.31186141    -0.18600
C2199       C  0.46767727  0.97366011  0.33960434    -0.20400
C2200       C  0.46770425  0.97649265  0.35739785    -0.13000
C2201       C  0.98991016  0.50187314  0.36566443     0.03700
C2202       C  0.01231232  0.52446460  0.35580740    -0.25100
H2203       H  0.05521076  0.55670321  0.30330893     0.08700
H2204       H  0.05374235  0.56271274  0.33422597     0.12300
H2205       H  0.47347433  0.97335299  0.30556675     0.12300
H2206       H  0.45020370  0.95389631  0.33359124     0.12000
H2207       H  0.45022653  0.95879803  0.36473824     0.12600
H2208       H  0.02975974  0.54393941  0.36208526     0.14500
O2209       O  0.99698566  0.49696905  0.22568608    -0.72000
O2210       O  0.99247672  0.49649709  0.27448802    -0.72300
O2211       O  0.99042386  0.03057758  0.24940295    -0.72100
O2212       O  0.99847910  0.46241997  0.25067974    -0.72100
O2213       O  0.54620449  0.49006227  0.25270927    -0.72100
O2214       O  0.53820904  0.05866890  0.25012011    -0.72100
O2215       O  0.54011383  0.02555506  0.27563633    -0.72000
O2216       O  0.54483267  0.02376950  0.22737737    -0.72200
V2217       V  0.99550935  0.49710883  0.25010127     1.35200
V2218       V  0.54140341  0.02392017  0.25145991     1.35200
C2219       C  0.52186633  0.01044325  0.21824046     0.77200
C2220       C  0.51561095  0.01178328  0.28333834     0.77300
C2221       C  0.01282877  0.05625493  0.24947602     0.77100
C2222       C  0.02360287  0.46447075  0.25174217     0.77100
O2223       O  0.98676066  0.27936493  0.25236837    -0.72000
O2224       O  0.99420381  0.21036167  0.25077429    -0.72300
O2225       O  0.99579372  0.24669887  0.27550338    -0.72100
O2226       O  0.98443398  0.24260396  0.22771166    -0.72100
O2227       O  0.53190921  0.26868840  0.22379342    -0.72100
O2228       O  0.54307106  0.27607325  0.27226418    -0.72100
O2229       O  0.54180933  0.23824935  0.24824987    -0.72000
O2230       O  0.53395102  0.30654407  0.24776051    -0.72200
V2231       V  0.99124067  0.24530093  0.25152687     1.35200
V2232       V  0.53680408  0.27181593  0.24807258     1.35200
C2233       C  0.50918739  0.30477049  0.25017361     0.77200
C2234       C  0.51945391  0.21263261  0.24941070     0.77300
C2235       C  0.02105013  0.26233235  0.28211480     0.77100
C2236       C  0.00601119  0.25478843  0.21753677     0.77100
O2237       O  0.75748769  0.46102607  0.25255067    -0.72000
O2238       O  0.75906637  0.03487035  0.25001080    -0.72300
O2239       O  0.75278029  0.99729980  0.27519897    -0.72100
O2240       O  0.76435958  0.99891445  0.22744804    -0.72100
O2241       O  0.71692966  0.47788756  0.22332942    -0.72100
O2242       O  0.70514348  0.47155106  0.27171696    -0.72100
O2243       O  0.71118455  0.01112844  0.24769586    -0.72000
O2244       O  0.71029425  0.43801558  0.24734040    -0.72200
V2245       V  0.75749221  0.99755353  0.25123897     1.35200
V2246       V  0.71177830  0.47508934  0.24757332     1.35200
C2247       C  0.73357461  0.43688262  0.25013427     0.77200
C2248       C  0.73517278  0.03549943  0.24870972     0.77300
C2249       C  0.72721177  0.98396888  0.28169183     0.77100
C2250       C  0.74281802  0.98917247  0.21718355     0.77100
O2251       O  0.73193060  0.27106898  0.25049771    -0.72000
O2252       O  0.73343960  0.19882445  0.24766256    -0.72300
O2253       O  0.73149610  0.23191171  0.27323208    -0.72100
O2254       O  0.73333646  0.23718630  0.22490124    -0.72100
O2255       O  0.78136957  0.26128311  0.22539980    -0.72100
O2256       O  0.77950656  0.25748715  0.27420642    -0.72100
O2257       O  0.78144410  0.22357172  0.24873101    -0.72000
O2258       O  0.77996088  0.29545830  0.25080829    -0.72200
V2259       V  0.73349936  0.23529967  0.24909403     1.35200
V2260       V  0.77964740  0.25900512  0.24977379     1.35200
C2261       C  0.75585027  0.29569353  0.25105309     0.77200
C2262       C  0.75776453  0.19890789  0.24778088     0.77300
C2263       C  0.75500793  0.24350903  0.28199174     0.77100
C2264       C  0.75753378  0.24956868  0.21683094     0.77100
O2265       O  0.50173530  0.03153402  0.44114741    -0.72000
O2266       O  0.50157634  0.02850691  0.39228074    -0.72300
O2267       O  0.96371527  0.02693749  0.41634824    -0.72100
O2268       O  0.53943308  0.03354241  0.41700955    -0.72100
O2269       O  0.51896165  0.48566871  0.41734656    -0.72100
O2270       O  0.94303118  0.47913731  0.41805375    -0.72100
O2271       O  0.97945329  0.48054305  0.39347819    -0.72000
O2272       O  0.98212681  0.48378643  0.44194974    -0.72200
V2273       V  0.50118668  0.02922021  0.41672709     1.35200
V2274       V  0.98131512  0.48323523  0.41769256     1.35200
C2275       C  0.49215911  0.50805117  0.44989075     0.77200
C2276       C  0.49030352  0.00383927  0.38457514     0.77300
C2277       C  0.94041468  0.00194208  0.41716197     0.77100
C2278       C  0.54220016  0.01083251  0.41707895     0.77100
O2279       O  0.98606906  0.26940596  0.41719809    -0.72000
O2280       O  0.55490305  0.26241728  0.41616239    -0.72300
O2281       O  0.52073885  0.26757729  0.39222942    -0.72100
O2282       O  0.51998401  0.26365561  0.44109760    -0.72100
O2283       O  0.99412402  0.21575136  0.43948304    -0.72100
O2284       O  0.99168802  0.21994198  0.39137130    -0.72100
O2285       O  0.52764247  0.21470686  0.41378561    -0.72000
O2286       O  0.95846560  0.22155936  0.41697720    -0.72200
V2287       V  0.51989831  0.26487774  0.41665295     1.35200
V2288       V  0.99352662  0.21894123  0.41543805     1.35200
C2289       C  0.96052462  0.24678625  0.41741225     0.77200
C2290       C  0.55312690  0.23748217  0.41457002     0.77300
C2291       C  0.00600258  0.24417502  0.38349982     0.77100
C2292       C  0.00708308  0.23878757  0.44858543     0.77100
O2293       O  0.69399832  0.47980829  0.41717311    -0.72000
O2294       O  0.77051060  0.48829080  0.41547470    -0.72300
O2295       O  0.73457411  0.48663984  0.44062343    -0.72100
O2296       O  0.72986109  0.48165005  0.39190573    -0.72100
O2297       O  0.75212821  0.02963757  0.39064412    -0.72100
O2298       O  0.75195631  0.03402889  0.43897405    -0.72100
O2299       O  0.79030973  0.03609766  0.41541326    -0.72000
O2300       O  0.71348207  0.02732416  0.41425504    -0.72200
V2301       V  0.73261523  0.48498526  0.41625233     1.35200
V2302       V  0.75153667  0.03083431  0.41483360     1.35200
C2303       C  0.69063497  0.00209684  0.41592099     0.77200
C2304       C  0.79350900  0.01360990  0.41546121     0.77300
C2305       C  0.74369692  0.51125575  0.44810272     0.77100
C2306       C  0.74095201  0.00501821  0.38300290     0.77100
O2307       O  0.73778809  0.27289101  0.41742079    -0.72000
O2308       O  0.80601557  0.26427384  0.41870168    -0.72300
O2309       O  0.77537635  0.27247492  0.39384626    -0.72100
O2310       O  0.76876297  0.26490893  0.44225523    -0.72100
O2311       O  0.74114710  0.21729446  0.43963183    -0.72100
O2312       O  0.74694488  0.22495735  0.39114103    -0.72100
O2313       O  0.77801487  0.21673250  0.41585389    -0.72000
O2314       O  0.71001151  0.22525748  0.41492176    -0.72200
V2315       V  0.77142496  0.26772543  0.41799488     1.35200
V2316       V  0.74458069  0.22200060  0.41543958     1.35200
C2317       C  0.71219163  0.25043531  0.41604779     0.77200
C2318       C  0.80363047  0.23898014  0.41745561     0.77300
C2319       C  0.76240359  0.25003938  0.38421604     0.77100
C2320       C  0.75392427  0.23981148  0.44924134     0.77100
O2321       O  0.99399324  0.50493230  0.05880735    -0.72000
O2322       O  0.98910668  0.50207691  0.10703855    -0.72300
O2323       O  0.99208929  0.04036005  0.08304993    -0.72100
O2324       O  0.99171445  0.46700928  0.08276592    -0.72100
O2325       O  0.53964860  0.49109316  0.08469610    -0.72100
O2326       O  0.54007956  0.06383571  0.08430901    -0.72100
O2327       O  0.53704487  0.02617480  0.10892916    -0.72000
O2328       O  0.54198777  0.02795771  0.06017942    -0.72200
V2329       V  0.99266645  0.50407179  0.08295497     1.35200
V2330       V  0.53876202  0.02686606  0.08451833     1.35200
C2331       C  0.51861676  0.01654227  0.05121031     0.77200
C2332       C  0.51204370  0.01336186  0.11627244     0.77300
C2333       C  0.51631640  0.06468725  0.08356411     0.77100
C2334       C  0.51580583  0.46666185  0.08364314     0.77100
O2335       O  0.97121542  0.20712133  0.08395421    -0.72000
O2336       O  0.97124646  0.27962371  0.08531610    -0.72300
O2337       O  0.96667531  0.24236021  0.06035621    -0.72100
O2338       O  0.97658893  0.24509035  0.10891112    -0.72100
O2339       O  0.52420180  0.27029375  0.10538078    -0.72100
O2340       O  0.51444053  0.26468495  0.05746414    -0.72100
O2341       O  0.51876848  0.30378856  0.08127120    -0.72000
O2342       O  0.51908301  0.23076427  0.08166605    -0.72200
V2343       V  0.97233615  0.24396247  0.08457837     1.35200
V2344       V  0.51818338  0.26691237  0.08150512     1.35200
C2345       C  0.99499798  0.20638808  0.08278660     0.77200
C2346       C  0.99479371  0.30405120  0.08332254     0.77300
C2347       C  0.98913032  0.25310370  0.05066081     0.77100
C2348       C  0.00233704  0.25859772  0.11538356     0.77100
O2349       O  0.78411191  0.01019429  0.06037064    -0.72000
O2350       O  0.77334189  0.00667972  0.10879120    -0.72300
O2351       O  0.77855022  0.47213766  0.08508169    -0.72100
O2352       O  0.77942599  0.04520750  0.08410461    -0.72100
O2353       O  0.73175860  0.02190692  0.08062845    -0.72100
O2354       O  0.73089055  0.44836859  0.08155557    -0.72100
O2355       O  0.72572913  0.48333565  0.10499182    -0.72000
O2356       O  0.73638188  0.48694176  0.05711223    -0.72200
V2357       V  0.77794595  0.00812132  0.08452638     1.35200
V2358       V  0.73214033  0.48557499  0.08113309     1.35200
C2359       C  0.76185425  0.99905119  0.05050058     0.77200
C2360       C  0.74752765  0.99449737  0.11509852     0.77300
C2361       C  0.75473682  0.44778679  0.08339719     0.77100
C2362       C  0.75581689  0.04614224  0.08231877     0.77100
O2363       O  0.70859351  0.25980373  0.08318132    -0.72000
O2364       O  0.70901884  0.18740356  0.08188836    -0.72300
O2365       O  0.70757927  0.22197244  0.10696656    -0.72100
O2366       O  0.71065930  0.22557250  0.05816508    -0.72100
O2367       O  0.75864249  0.24746153  0.05957279    -0.72100
O2368       O  0.75554643  0.24791786  0.10780278    -0.72100
O2369       O  0.75689978  0.21119231  0.08420229    -0.72000
O2370       O  0.75663094  0.28417980  0.08306128    -0.72200
V2371       V  0.70986204  0.22414150  0.08258377     1.35200
V2372       V  0.75598878  0.24726921  0.08364196     1.35200
C2373       C  0.73242400  0.28437961  0.08308220     0.77200
C2374       C  0.73288648  0.18678897  0.08295949     0.77300
C2375       C  0.73123232  0.23460758  0.11569722     0.77100
C2376       C  0.73540712  0.23663941  0.05062682     0.77100
O2377       O  0.94580990  0.48024032  0.91714137    -0.72000
O2378       O  0.51478807  0.05670442  0.91891898    -0.72300
O2379       O  0.98080970  0.02020509  0.89381499    -0.72100
O2380       O  0.97941079  0.01677527  0.94216918    -0.72100
O2381       O  0.50925583  0.49904169  0.94175227    -0.72100
O2382       O  0.50664774  0.49805884  0.89301379    -0.72100
O2383       O  0.54218614  0.03633825  0.91695621    -0.72000
O2384       O  0.97372122  0.46033340  0.91781111    -0.72200
V2385       V  0.98075345  0.01812051  0.91798770     1.35200
V2386       V  0.50739446  0.49879884  0.91739620     1.35200
C2387       C  0.94807549  0.45717931  0.91737937     0.77200
C2388       C  0.54032213  0.05949877  0.91810576     0.77300
C2389       C  0.49349719  0.50935071  0.88510356     0.77100
C2390       C  0.49442962  0.50782866  0.95023534     0.77100
O2391       O  0.97396192  0.20154842  0.91829370    -0.72000
O2392       O  0.55074888  0.27015433  0.91626983    -0.72300
O2393       O  0.51364463  0.23848151  0.94140030    -0.72100
O2394       O  0.51177108  0.23319535  0.89316410    -0.72100
O2395       O  0.99306964  0.26211950  0.89170188    -0.72100
O2396       O  0.99178701  0.26463571  0.94048603    -0.72100
O2397       O  0.53041281  0.29768940  0.91599791    -0.72000
O2398       O  0.95430020  0.22955500  0.91616853    -0.72200
V2399       V  0.51207253  0.23631896  0.91726579     1.35200
V2400       V  0.99278207  0.26296845  0.91610632     1.35200
C2401       C  0.95098067  0.20395100  0.91740367     0.77200
C2402       C  0.55358635  0.29572061  0.91595519     0.77300
C2403       C  0.00315708  0.25238201  0.94919859     0.77100
C2404       C  0.00266622  0.24708991  0.88413941     0.77100
O2405       O  0.72168367  0.45429398  0.91513018    -0.72000
O2406       O  0.79732469  0.02303668  0.91626591    -0.72300
O2407       O  0.75983365  0.48678752  0.94006727    -0.72100
O2408       O  0.75917112  0.49123863  0.89130652    -0.72100
O2409       O  0.73931475  0.01909604  0.89325208    -0.72100
O2410       O  0.73802191  0.01296632  0.94140962    -0.72100
O2411       O  0.77715971  0.05059386  0.91842633    -0.72000
O2412       O  0.70085000  0.48134101  0.91625594    -0.72200
V2413       V  0.75909127  0.48935060  0.91570711     1.35200
V2414       V  0.73928916  0.01550934  0.91730651     1.35200
C2415       C  0.69832861  0.45592087  0.91550384     0.77200
C2416       C  0.80031584  0.04849350  0.91764148     0.77300
C2417       C  0.74853904  0.49890284  0.94897660     0.77100
C2418       C  0.74915588  0.50612057  0.88399506     0.77100
O2419       O  0.72829200  0.26615503  0.93977862    -0.72000
O2420       O  0.73581920  0.26417414  0.89146967    -0.72300
O2421       O  0.69814348  0.22738605  0.91510432    -0.72100
O2422       O  0.76616845  0.30369861  0.91623757    -0.72100
O2423       O  0.79417795  0.28416588  0.91913351    -0.72100
O2424       O  0.72564463  0.20732804  0.91830032    -0.72100
O2425       O  0.76335897  0.24418262  0.89471084    -0.72000
O2426       O  0.75646446  0.24681585  0.94277759    -0.72200
V2427       V  0.73273613  0.26505394  0.91568368     1.35200
V2428       V  0.75943488  0.24607223  0.91868259     1.35200
C2429       C  0.74055537  0.25605804  0.94949567     0.77200
C2430       C  0.75052670  0.25338837  0.88485149     0.77300
C2431       C  0.70013395  0.20436330  0.91670871     0.77100
C2432       C  0.79179795  0.30708647  0.91778682     0.77100
O2433       O  0.96929546  0.45793980  0.55945916    -0.72000
O2434       O  0.97246306  0.45654746  0.60803925    -0.72300
O2435       O  0.93436441  0.45731138  0.58494364    -0.72100
O2436       O  0.50700997  0.45709095  0.58254740    -0.72100
O2437       O  0.53122496  0.00505406  0.58402170    -0.72100
O2438       O  0.95830583  0.00532445  0.58437831    -0.72100
O2439       O  0.49465211  0.00455553  0.60858540    -0.72000
O2440       O  0.49482467  0.00592536  0.55984515    -0.72200
V2441       V  0.97120563  0.45816815  0.58375907     1.35200
V2442       V  0.49430545  0.00430432  0.58420788     1.35200
C2443       C  0.48187826  0.48212496  0.55131179     0.77200
C2444       C  0.48401431  0.48031170  0.61661205     0.77300
C2445       C  0.93383099  0.48130148  0.58481311     0.77100
C2446       C  0.53155368  0.48098010  0.58306075     0.77100
O2447       O  0.96056287  0.21421590  0.58170492    -0.72000
O2448       O  0.53765413  0.22334106  0.58236244    -0.72300
O2449       O  0.99727589  0.21494868  0.60627795    -0.72100
O2450       O  0.00107887  0.22264853  0.55775535    -0.72100
O2451       O  0.52143103  0.27030260  0.56039261    -0.72100
O2452       O  0.51517820  0.26237123  0.60863427    -0.72100
O2453       O  0.55676419  0.27077770  0.58553094    -0.72000
O2454       O  0.98014558  0.26190384  0.58350472    -0.72200
V2455       V  0.99950263  0.21967082  0.58206120     1.35200
V2456       V  0.51801511  0.26537708  0.58447078     1.35200
C2457       C  0.95726058  0.23664021  0.58236519     0.77200
C2458       C  0.56036711  0.24862315  0.58423054     0.77300
C2459       C  0.00535629  0.23742706  0.61571830     0.77100
C2460       C  0.01197708  0.24786435  0.55079370     0.77100
O2461       O  0.69634096  0.48141708  0.58362324    -0.72000
O2462       O  0.76963991  0.48189581  0.58402136    -0.72300
O2463       O  0.73455226  0.48518435  0.60800417    -0.72100
O2464       O  0.73143499  0.47792017  0.55964211    -0.72100
O2465       O  0.75548824  0.02577432  0.55726410    -0.72100
O2466       O  0.75747700  0.03306636  0.60577743    -0.72100
O2467       O  0.79327100  0.02979399  0.58205579    -0.72000
O2468       O  0.72016495  0.02922892  0.58101670    -0.72200
V2469       V  0.73344828  0.48254017  0.58378032     1.35200
V2470       V  0.75618480  0.02853262  0.58156084     1.35200
C2471       C  0.69576749  0.50531461  0.58224739     0.77200
C2472       C  0.79401809  0.50597699  0.58318513     0.77300
C2473       C  0.74627922  0.51027779  0.61516294     0.77100
C2474       C  0.74287865  0.50056589  0.55016899     0.77100
O2475       O  0.77143232  0.27289259  0.56096392    -0.72000
O2476       O  0.77058626  0.26660393  0.60931946    -0.72300
O2477       O  0.80893915  0.27293161  0.58450373    -0.72100
O2478       O  0.73284734  0.26620243  0.58576375    -0.72100
O2479       O  0.71254603  0.21838336  0.58468186    -0.72100
O2480       O  0.78821677  0.22533454  0.58130194    -0.72100
O2481       O  0.75198020  0.21905349  0.60723894    -0.72000
O2482       O  0.74917435  0.22505399  0.55871741    -0.72200
V2483       V  0.77055846  0.26873933  0.58509985     1.35200
V2484       V  0.75083525  0.22287420  0.58302296     1.35200
C2485       C  0.76034459  0.25013017  0.55154264     0.77200
C2486       C  0.76157080  0.24190025  0.61655679     0.77300
C2487       C  0.81151850  0.25021986  0.58258134     0.77100
C2488       C  0.70964606  0.24100202  0.58554696     0.77100
O2489       O  0.94911285  0.47283368  0.75237720    -0.72000
O2490       O  0.51783774  0.04895676  0.75127049    -0.72300
O2491       O  0.98095666  0.01145429  0.72756581    -0.72100
O2492       O  0.98614434  0.01042658  0.77602025    -0.72100
O2493       O  0.51462656  0.49129479  0.77395749    -0.72100
O2494       O  0.50693575  0.48954593  0.72549387    -0.72100
O2495       O  0.54523435  0.02872304  0.74845396    -0.72000
O2496       O  0.97660918  0.45249447  0.75115718    -0.72200
V2497       V  0.98403890  0.01050651  0.75176421     1.35200
V2498       V  0.51036182  0.49094527  0.74977959     1.35200
C2499       C  0.95112064  0.44965651  0.75219647     0.77200
C2500       C  0.54327802  0.05188919  0.74962681     0.77300
C2501       C  0.99281442  0.50041411  0.71825375     0.77100
C2502       C  0.00131409  0.50076145  0.78328171     0.77100
O2503       O  0.94788528  0.23042681  0.74804062    -0.72000
O2504       O  0.52440818  0.29955215  0.75029734    -0.72300
O2505       O  0.98843237  0.26594386  0.72503067    -0.72100
O2506       O  0.98360816  0.26454222  0.77326707    -0.72100
O2507       O  0.50513210  0.23814895  0.77454408    -0.72100
O2508       O  0.50711523  0.23694641  0.72571393    -0.72100
O2509       O  0.54423856  0.27156714  0.75045323    -0.72000
O2510       O  0.96839270  0.20314520  0.74984116    -0.72200
V2511       V  0.98645416  0.26456341  0.74917090     1.35200
V2512       V  0.50583276  0.23798933  0.75012045     1.35200
C2513       C  0.94518815  0.20491285  0.74870670     0.77200
C2514       C  0.54745032  0.29721165  0.75065138     0.77300
C2515       C  0.49833678  0.25165397  0.71707719     0.77100
C2516       C  0.49378074  0.25151058  0.78220469     0.77100
O2517       O  0.70197300  0.47828733  0.75058871    -0.72000
O2518       O  0.77806908  0.04626911  0.74910685    -0.72300
O2519       O  0.73852131  0.01178725  0.72538905    -0.72100
O2520       O  0.74213017  0.01255153  0.77426983    -0.72100
O2521       O  0.76308968  0.48562938  0.77308911    -0.72100
O2522       O  0.75696470  0.48256681  0.72491800    -0.72100
O2523       O  0.79825642  0.01866769  0.74759138    -0.72000
O2524       O  0.72148751  0.45002129  0.75048664    -0.72200
V2525       V  0.74052553  0.01166042  0.74982316     1.35200
V2526       V  0.75956115  0.48476721  0.74902818     1.35200
C2527       C  0.69856073  0.45256424  0.75084689     0.77200
C2528       C  0.80115546  0.04427457  0.74810779     0.77300
C2529       C  0.74692518  0.49663073  0.71686906     0.77100
C2530       C  0.75379472  0.49951608  0.78196738     0.77100
O2531       O  0.79519126  0.27922072  0.75211413    -0.72000
O2532       O  0.72657104  0.20297975  0.75084090    -0.72300
O2533       O  0.76356919  0.24076708  0.72708628    -0.72100
O2534       O  0.75815528  0.24160118  0.77574169    -0.72100
O2535       O  0.72940146  0.26038352  0.77339802    -0.72100
O2536       O  0.73752270  0.26264904  0.72528699    -0.72100
O2537       O  0.69908703  0.22309011  0.74789458    -0.72000
O2538       O  0.76753773  0.29938439  0.75089351    -0.72200
V2539       V  0.76032729  0.24148111  0.75139560     1.35200
V2540       V  0.73387399  0.26089739  0.74938922     1.35200
C2541       C  0.79308424  0.30234189  0.75187270     0.77200
C2542       C  0.70109029  0.19997252  0.74919403     0.77300
C2543       C  0.75209494  0.25243422  0.71794826     0.77100
C2544       C  0.74280712  0.25124076  0.78284109     0.77100
C2545       C  0.83055597  0.07145670  0.74777743    -0.05500
C2546       C  0.85667829  0.06991418  0.74798203    -0.05400
C2547       C  0.88432525  0.09579512  0.74812158    -0.23600
C2548       C  0.88629550  0.12363260  0.74803489     0.18600
C2549       C  0.86017235  0.12542685  0.74773522     0.15800
C2550       C  0.83255188  0.09939264  0.74761749    -0.18600
C2551       C  0.86210830  0.15323702  0.74761996    -0.20400
C2552       C  0.88972183  0.17911882  0.74785035    -0.13000
C2553       C  0.91586454  0.17762516  0.74823543     0.03700
C2554       C  0.91391868  0.14969879  0.74829365    -0.25100
H2555       H  0.85573722  0.04870822  0.74815881     0.08700
H2556       H  0.90417111  0.09403761  0.74835301     0.12300
H2557       H  0.81258130  0.10094714  0.74746105     0.12300
H2558       H  0.84225102  0.15497518  0.74738564     0.12000
H2559       H  0.89061297  0.20030288  0.74780446     0.12600
H2560       H  0.93390929  0.14818623  0.74856386     0.14500
C2561       C  0.66838625  0.42638385  0.75137513    -0.05500
C2562       C  0.64348856  0.43016912  0.75129447    -0.05400
C2563       C  0.61486518  0.40574469  0.75135096    -0.23600
C2564       C  0.61051903  0.37699586  0.75148427     0.18600
C2565       C  0.63536487  0.37290074  0.75173165     0.15800
C2566       C  0.66409991  0.39757100  0.75168737    -0.18600
C2567       C  0.63105005  0.34417390  0.75189008    -0.20400
C2568       C  0.60246101  0.31974575  0.75163733    -0.13000
C2569       C  0.57754891  0.32348986  0.75122842     0.03700
C2570       C  0.58178314  0.35229658  0.75125176    -0.25100
H2571       H  0.64610723  0.45210637  0.75106964     0.08700
H2572       H  0.59613261  0.40935997  0.75118841     0.12300
H2573       H  0.68306758  0.39431644  0.75177078     0.12300
H2574       H  0.64979126  0.34057453  0.75211708     0.12000
H2575       H  0.59988839  0.29782403  0.75168084     0.12600
H2576       H  0.56279649  0.35551449  0.75097690     0.14500
C2577       C  0.92436106  0.42002388  0.75313867    -0.05500
C2578       C  0.92693041  0.39458147  0.75488150    -0.05400
C2579       C  0.90171241  0.36650379  0.75543555    -0.23600
C2580       C  0.87346944  0.36335313  0.75414793     0.18600
C2581       C  0.87061924  0.38880884  0.75258832     0.15800
C2582       C  0.89603539  0.41694444  0.75217578    -0.18600
C2583       C  0.84239649  0.38567605  0.75125709    -0.20400
C2584       C  0.81721857  0.35756493  0.75121852    -0.13000
C2585       C  0.81978489  0.33206559  0.75253538     0.03700
C2586       C  0.84806302  0.33517896  0.75416275    -0.25100
H2587       H  0.94848515  0.39636822  0.75577215     0.08700
H2588       H  0.90431625  0.34724291  0.75670177     0.12300
H2589       H  0.89374066  0.43638962  0.75085569     0.12300
H2590       H  0.83979897  0.40495256  0.75007761     0.12000
H2591       H  0.79570995  0.35579140  0.74998095     0.12600
H2592       H  0.85035755  0.31570276  0.75524405     0.14500
C2593       C  0.56997786  0.08167167  0.74920152    -0.05500
C2594       C  0.56718207  0.10711292  0.74868093    -0.05400
C2595       C  0.59225585  0.13531448  0.74840954    -0.23600
C2596       C  0.62062491  0.13862886  0.74873891     0.18600
C2597       C  0.62371665  0.11322089  0.74934740     0.15800
C2598       C  0.59841837  0.08494279  0.74951098    -0.18600
C2599       C  0.65207524  0.11653306  0.74983964    -0.20400
C2600       C  0.67715070  0.14473080  0.74971447    -0.13000
C2601       C  0.67437700  0.17017464  0.74902932     0.03700
C2602       C  0.64593404  0.16690482  0.74853411    -0.25100
H2603       H  0.54554568  0.10522853  0.74844060     0.08700
H2604       H  0.58944664  0.15453058  0.74797637     0.12300
H2605       H  0.60089673  0.06552386  0.75000530     0.12300
H2606       H  0.65487520  0.09731633  0.75036066     0.12000
H2607       H  0.69877354  0.14660342  0.75016431     0.12600
H2608       H  0.64345549  0.18632711  0.74810753     0.14500
C2609       C  0.76191079  0.24001968  0.63544049    -0.05500
C2610       C  0.76154626  0.21584434  0.64360615    -0.05400
C2611       C  0.76119975  0.21404003  0.66150094    -0.23600
C2612       C  0.76049491  0.23604202  0.67151246     0.18600
C2613       C  0.76086710  0.26040877  0.66334034     0.15800
C2614       C  0.76210338  0.26248172  0.64545020    -0.18600
C2615       C  0.75920337  0.28198627  0.67315271    -0.20400
C2616       C  0.75641295  0.27913009  0.69087617    -0.13000
C2617       C  0.75598444  0.25507224  0.69920188     0.03700
C2618       C  0.75863560  0.23380744  0.68948156    -0.25100
H2619       H  0.76161501  0.19838158  0.63614159     0.08700
H2620       H  0.76090659  0.19517570  0.66748965     0.12300
H2621       H  0.76221629  0.28115306  0.63929108     0.12300
H2622       H  0.75945471  0.30078330  0.66709243     0.12000
H2623       H  0.75469184  0.29590301  0.69813821     0.12600
H2624       H  0.75816825  0.21510634  0.69581950     0.14500
C2625       C  0.74670706  0.51264977  0.63402521    -0.05500
C2626       C  0.74943884  0.03799912  0.64207969    -0.05400
C2627       C  0.74900395  0.03970210  0.65995204    -0.23600
C2628       C  0.74639959  0.01630204  0.67006953     0.18600
C2629       C  0.74418648  0.49097237  0.66201892     0.15800
C2630       C  0.74398079  0.48916989  0.64411915    -0.18600
C2631       C  0.74249426  0.46790971  0.67198884    -0.20400
C2632       C  0.74325602  0.46996039  0.68978028    -0.13000
C2633       C  0.74513859  0.49482566  0.69799584     0.03700
C2634       C  0.74639224  0.01788496  0.68805685    -0.25100
H2635       H  0.75145292  0.05632035  0.63454025     0.08700
H2636       H  0.75087042  0.05936634  0.66585197     0.12300
H2637       H  0.74213396  0.46962539  0.63803484     0.12300
H2638       H  0.74090400  0.44840255  0.66602664     0.12000
H2639       H  0.74221980  0.45190964  0.69716720     0.12600
H2640       H  0.74819333  0.03729320  0.69428593     0.14500
C2641       C  0.92757956  0.23376557  0.58185182    -0.05500
C2642       C  0.90180425  0.20584241  0.58100452    -0.05400
C2643       C  0.87386583  0.20345735  0.58070723    -0.23600
C2644       C  0.87126849  0.22895896  0.58126876     0.18600
C2645       C  0.89707435  0.25710007  0.58202993     0.15800
C2646       C  0.92495404  0.25930207  0.58229378    -0.18600
C2647       C  0.89461376  0.28263431  0.58263364    -0.20400
C2648       C  0.86679503  0.28036405  0.58267061    -0.13000
C2649       C  0.84093514  0.25252712  0.58204306     0.03700
C2650       C  0.84336414  0.22685060  0.58122416    -0.25100
H2651       H  0.90323280  0.18584315  0.58063483     0.08700
H2652       H  0.85430826  0.18168513  0.58011653     0.12300
H2653       H  0.94463614  0.28099370  0.58292299     0.12300
H2654       H  0.91421600  0.30437688  0.58319458     0.12000
H2655       H  0.86553418  0.30044276  0.58327199     0.12600
H2656       H  0.82358077  0.20522012  0.58074724     0.14500
C2657       C  0.59037634  0.25225220  0.58490121    -0.05500
C2658       C  0.61556414  0.28066930  0.58539461    -0.05400
C2659       C  0.64396144  0.28422994  0.58588538    -0.23600
C2660       C  0.64771367  0.25942884  0.58594152     0.18600
C2661       C  0.62252304  0.23076000  0.58561233     0.15800
C2662       C  0.59408482  0.22735690  0.58507024    -0.18600
C2663       C  0.62618302  0.20593460  0.58572972    -0.20400
C2664       C  0.65451184  0.20941739  0.58593248    -0.13000
C2665       C  0.67978562  0.23778854  0.58603231     0.03700
C2666       C  0.67618297  0.26277731  0.58617677    -0.25100
H2667       H  0.61333602  0.30022250  0.58529748     0.08700
H2668       H  0.66298167  0.30638451  0.58615541     0.12300
H2669       H  0.57486341  0.20531454  0.58477243     0.12300
H2670       H  0.60712980  0.18379538  0.58553763     0.12000
H2671       H  0.65661008  0.18978924  0.58586468     0.12600
H2672       H  0.69546373  0.28478321  0.58627545     0.14500
C2673       C  0.00348166  0.23495217  0.63456099    -0.05500
C2674       C  0.50338989  0.21112795  0.64298881    -0.05400
C2675       C  0.50285657  0.20970460  0.66088675    -0.23600
C2676       C  0.50188723  0.23183058  0.67062366     0.18600
C2677       C  0.00119925  0.25543816  0.66217350     0.15800
C2678       C  0.00229250  0.25698436  0.64427424    -0.18600
C2679       C  0.99941978  0.27717707  0.67174594    -0.20400
C2680       C  0.99841547  0.27566717  0.68955043    -0.13000
C2681       C  0.49960168  0.25264491  0.69817704     0.03700
C2682       C  0.50144625  0.23075988  0.68861876    -0.25100
H2683       H  0.50432447  0.19391458  0.63573977     0.08700
H2684       H  0.50321930  0.19133550  0.66710238     0.12300
H2685       H  0.00200128  0.27527822  0.63788333     0.12300
H2686       H  0.99872319  0.29532791  0.66546271     0.12000
H2687       H  0.99699806  0.29279036  0.69661033     0.12600
H2688       H  0.50205324  0.21274629  0.69514343     0.14500
C2689       C  0.90527005  0.48113421  0.58499607    -0.05500
C2690       C  0.87834862  0.45416313  0.58553235    -0.05400
C2691       C  0.85129960  0.45366775  0.58537113    -0.23600
C2692       C  0.85056583  0.48014167  0.58464811     0.18600
C2693       C  0.87744133  0.00742728  0.58416944     0.15800
C2694       C  0.90458991  0.00776714  0.58437476    -0.18600
C2695       C  0.87667274  0.03389227  0.58341405    -0.20400
C2696       C  0.84958570  0.03335070  0.58308781    -0.13000
C2697       C  0.82267971  0.50634526  0.58353924     0.03700
C2698       C  0.82341693  0.47976594  0.58434703    -0.25100
H2699       H  0.87816125  0.43332773  0.58601245     0.08700
H2700       H  0.83093089  0.43253395  0.58575086     0.12300
H2701       H  0.92514030  0.02874501  0.58394179     0.12300
H2702       H  0.89703142  0.05503594  0.58304113     0.12000
H2703       H  0.84972327  0.05415445  0.58248660     0.12600
H2704       H  0.80288536  0.45876377  0.58470001     0.14500
C2705       C  0.55980654  0.48060451  0.58260972    -0.05500
C2706       C  0.55960947  0.45353933  0.58220569    -0.05400
C2707       C  0.58610235  0.45292275  0.58198815    -0.23600
C2708       C  0.61336671  0.47936875  0.58213785     0.18600
C2709       C  0.61386490  0.00671718  0.58241121     0.15800
C2710       C  0.58714443  0.00717049  0.58266720    -0.18600
C2711       C  0.64110346  0.03317197  0.58246661    -0.20400
C2712       C  0.66759433  0.03258363  0.58231894    -0.13000
C2713       C  0.66743744  0.50553810  0.58217324     0.03700
C2714       C  0.64011570  0.47893731  0.58206060    -0.25100
H2715       H  0.53890506  0.43273788  0.58213379     0.08700
H2716       H  0.58525107  0.43173980  0.58174243     0.12300
H2717       H  0.58766600  0.02820419  0.58293601     0.12300
H2718       H  0.64193789  0.05434836  0.58265622     0.12000
H2719       H  0.68827920  0.05340431  0.58242516     0.12600
H2720       H  0.63963763  0.45792216  0.58190139     0.14500
C2721       C  0.99034949  0.50042494  0.69938986    -0.05500
C2722       C  0.98652698  0.52225334  0.69120502    -0.05400
C2723       C  0.98494721  0.52295119  0.67336577    -0.23600
C2724       C  0.98647626  0.50140236  0.66338382     0.18600
C2725       C  0.48942291  0.97879705  0.67151401     0.15800
C2726       C  0.49180972  0.97871861  0.68943695    -0.18600
C2727       C  0.48981075  0.95660260  0.66156740    -0.20400
C2728       C  0.48747656  0.95688305  0.64375012    -0.13000
C2729       C  0.48541122  0.47971108  0.63551118     0.03700
C2730       C  0.98499462  0.50199836  0.64542983    -0.25100
H2731       H  0.98532303  0.53917202  0.69861683     0.08700
H2732       H  0.98245340  0.54030505  0.66738232     0.12300
H2733       H  0.49435356  0.96155094  0.69565276     0.12300
H2734       H  0.49184684  0.93898717  0.66756456     0.12000
H2735       H  0.48790235  0.93953299  0.63635345     0.12600
H2736       H  0.98307291  0.51951211  0.63918765     0.14500
C2737       C  0.74081597  0.25252341  0.80166440    -0.05500
C2738       C  0.72439131  0.26446470  0.80893714    -0.05400
C2739       C  0.72313759  0.26702955  0.82662340    -0.23600
C2740       C  0.73826405  0.25768401  0.83742049     0.18600
C2741       C  0.75464019  0.24535234  0.83032198     0.15800
C2742       C  0.75580256  0.24281571  0.81247780    -0.18600
C2743       C  0.76967609  0.23595185  0.84121188    -0.20400
C2744       C  0.76851352  0.23878149  0.85893548    -0.13000
C2745       C  0.75231945  0.25108671  0.86608921     0.03700
C2746       C  0.73725201  0.26050808  0.85520051    -0.25100
H2747       H  0.71265039  0.27213771  0.80092699     0.08700
H2748       H  0.71044169  0.27647856  0.83185042     0.12300
H2749       H  0.76854379  0.23357073  0.80703729     0.12300
H2750       H  0.78231615  0.22640774  0.83603292     0.12000
H2751       H  0.78023955  0.23123173  0.86705149     0.12600
H2752       H  0.72460113  0.26992935  0.86054612     0.14500
C2753       C  0.74852650  0.50830382  0.86513229    -0.05500
C2754       C  0.73317463  0.02111902  0.85747288    -0.05400
C2755       C  0.73164582  0.02262880  0.83969128    -0.23600
C2756       C  0.74550215  0.01141433  0.82919017     0.18600
C2757       C  0.76144206  0.49895999  0.83675410     0.15800
C2758       C  0.76284772  0.49746898  0.85464515    -0.18600
C2759       C  0.77540191  0.48784213  0.82628889    -0.20400
C2760       C  0.77303698  0.48839040  0.80853074    -0.13000
C2761       C  0.75678329  0.50019308  0.80083039     0.03700
C2762       C  0.74336332  0.01207045  0.81127958    -0.25100
H2763       H  0.72196644  0.02969370  0.86524644     0.08700
H2764       H  0.71939082  0.03232382  0.83416151     0.12300
H2765       H  0.77491457  0.48772356  0.86038112     0.12300
H2766       H  0.78787635  0.47839690  0.83183446     0.12000
H2767       H  0.78386428  0.47935026  0.80080219     0.12600
H2768       H  0.73087698  0.02133473  0.80551601     0.14500
C2769       C  0.92085458  0.17775650  0.91771513    -0.05500
C2770       C  0.89592166  0.18144570  0.91696937    -0.05400
C2771       C  0.86733970  0.15697841  0.91704209    -0.23600
C2772       C  0.86309716  0.12830001  0.91782453     0.18600
C2773       C  0.88799142  0.12431928  0.91862371     0.15800
C2774       C  0.91667129  0.14902759  0.91860521    -0.18600
C2775       C  0.88379167  0.09566273  0.91931970    -0.20400
C2776       C  0.85525790  0.07117995  0.91908752    -0.13000
C2777       C  0.83031120  0.07482154  0.91823221     0.03700
C2778       C  0.83441636  0.10355131  0.91770156    -0.25100
H2779       H  0.89848114  0.20333714  0.91628585     0.08700
H2780       H  0.84856943  0.16049883  0.91641399     0.12300
H2781       H  0.93567689  0.14586546  0.91917342     0.12300
H2782       H  0.90257329  0.09216090  0.91995062     0.12000
H2783       H  0.85274896  0.04929462  0.91955987     0.12600
H2784       H  0.81538407  0.10665605  0.91700392     0.14500
C2785       C  0.58306437  0.32280794  0.91558435    -0.05500
C2786       C  0.60906798  0.32103046  0.91526872    -0.05400
C2787       C  0.63682842  0.34676452  0.91501392    -0.23600
C2788       C  0.63904993  0.37470668  0.91510039     0.18600
C2789       C  0.61304005  0.37672437  0.91538691     0.15800
C2790       C  0.58529705  0.35083143  0.91560416    -0.18600
C2791       C  0.61520146  0.40461906  0.91552136    -0.20400
C2792       C  0.64291068  0.43035726  0.91546411    -0.13000
C2793       C  0.66895810  0.42866704  0.91523279     0.03700
C2794       C  0.66680515  0.40065752  0.91499182    -0.25100
H2795       H  0.60795443  0.29974140  0.91523595     0.08700
H2796       H  0.65656065  0.34481014  0.91479610     0.12300
H2797       H  0.56542855  0.35256063  0.91585285     0.12300
H2798       H  0.59544850  0.40653834  0.91573946     0.12000
H2799       H  0.64394533  0.45160725  0.91565790     0.12600
H2800       H  0.68671573  0.39900103  0.91483376     0.14500
C2801       C  0.00360085  0.24574783  0.86525602    -0.05500
C2802       C  0.51894041  0.23312457  0.85736949    -0.05400
C2803       C  0.52009362  0.23167473  0.83957227    -0.23600
C2804       C  0.50577701  0.24266508  0.82928793     0.18600
C2805       C  0.99027538  0.25540185  0.83707042     0.15800
C2806       C  0.98937209  0.25696668  0.85498213    -0.18600
C2807       C  0.97591742  0.26635031  0.82679735    -0.20400
C2808       C  0.97700293  0.26484467  0.80900560    -0.13000
C2809       C  0.99241627  0.25231113  0.80110036     0.03700
C2810       C  0.50672541  0.24116059  0.81136930    -0.25100
H2811       H  0.53023850  0.22445064  0.86498087     0.08700
H2812       H  0.53214507  0.22190575  0.83386033     0.12300
H2813       H  0.97744841  0.26671300  0.86090148     0.12300
H2814       H  0.96388608  0.27613704  0.83251466     0.12000
H2815       H  0.96572613  0.27356381  0.80141361     0.12600
H2816       H  0.51874784  0.23152516  0.80544565     0.14500
C2817       C  0.92161375  0.42719450  0.91716258    -0.05500
C2818       C  0.92498258  0.40210219  0.91628451    -0.05400
C2819       C  0.90030816  0.37365565  0.91621967    -0.23600
C2820       C  0.87172630  0.36968953  0.91706649     0.18600
C2821       C  0.86800330  0.39472484  0.91785925     0.15800
C2822       C  0.89293900  0.42330151  0.91788818    -0.18600
C2823       C  0.83938855  0.39072090  0.91863545    -0.20400
C2824       C  0.81472051  0.36223139  0.91862354    -0.13000
C2825       C  0.81815216  0.33715844  0.91791602     0.03700
C2826       C  0.84683144  0.34111260  0.91714446    -0.25100
H2827       H  0.94678768  0.40443461  0.91565113     0.08700
H2828       H  0.90360259  0.35474855  0.91555096     0.12300
H2829       H  0.89000758  0.44244082  0.91855596     0.12300
H2830       H  0.83606896  0.40961711  0.91924458     0.12000
H2831       H  0.79288653  0.35983497  0.91923031     0.12600
H2832       H  0.84979905  0.32199331  0.91650532     0.14500
C2833       C  0.56747798  0.08890692  0.91853701    -0.05500
C2834       C  0.56589514  0.11468600  0.92133141    -0.05400
C2835       C  0.59164870  0.14239897  0.92170971    -0.23600
C2836       C  0.61940630  0.14479489  0.91925486     0.18600
C2837       C  0.62128635  0.11900198  0.91659891     0.15800
C2838       C  0.59535923  0.09128368  0.91626024    -0.18600
C2839       C  0.64906802  0.12137836  0.91427440    -0.20400
C2840       C  0.67479407  0.14911624  0.91446535    -0.13000
C2841       C  0.67312094  0.17492050  0.91684088     0.03700
C2842       C  0.64529357  0.17254822  0.91931373    -0.25100
H2843       H  0.54473526  0.11343076  0.92323442     0.08700
H2844       H  0.58984443  0.16196625  0.92384955     0.12300
H2845       H  0.59692935  0.07157174  0.91414106     0.12300
H2846       H  0.65089194  0.10179612  0.91225447     0.12000
H2847       H  0.69597098  0.15041470  0.91254253     0.12600
H2848       H  0.64375727  0.19230650  0.92132580     0.14500
C2849       C  0.49270110  0.50994626  0.86617710    -0.05500
C2850       C  0.97768948  0.52258218  0.85793975    -0.05400
C2851       C  0.97655548  0.52333701  0.84013600    -0.23600
C2852       C  0.99042767  0.51148809  0.83017201     0.18600
C2853       C  0.50562937  0.99871145  0.83823869     0.15800
C2854       C  0.50665775  0.99798751  0.85620254    -0.18600
C2855       C  0.51950290  0.98690820  0.82816869    -0.20400
C2856       C  0.51829409  0.98774198  0.81030557    -0.13000
C2857       C  0.00313403  0.50033143  0.80218401     0.03700
C2858       C  0.98926899  0.51219584  0.81226784    -0.25100
H2859       H  0.96672754  0.53193154  0.86527603     0.08700
H2860       H  0.96480174  0.53320640  0.83415861     0.12300
H2861       H  0.51828794  0.98815608  0.86238229     0.12300
H2862       H  0.53125749  0.97700368  0.83409985     0.12000
H2863       H  0.52910692  0.97837892  0.80284341     0.12600
H2864       H  0.97749994  0.52197920  0.80619619     0.14500
C2865       C  0.73573907  0.25396166  0.96818112    -0.05500
C2866       C  0.71344044  0.25807522  0.97550108    -0.05400
C2867       C  0.70781632  0.25419077  0.99308813    -0.23600
C2868       C  0.72462245  0.24644282  0.00365843     0.18600
C2869       C  0.74729377  0.24258620  0.99637099     0.15800
C2870       C  0.75252910  0.24615379  0.97874379    -0.18600
C2871       C  0.76464974  0.23552987  0.00684610    -0.20400
C2872       C  0.76017434  0.23310429  0.02446479    -0.13000
C2873       C  0.73783854  0.23698134  0.03188076     0.03700
C2874       C  0.71965486  0.24307611  0.02140511    -0.25100
H2875       H  0.70002284  0.26383031  0.96758662     0.08700
H2876       H  0.69041312  0.25733725  0.99842035     0.12300
H2877       H  0.76979480  0.24291203  0.97326043     0.12300
H2878       H  0.78207221  0.23246226  0.00145727     0.12000
H2879       H  0.77431846  0.22829983  0.03237368     0.12600
H2880       H  0.70259934  0.24639310  0.02712501     0.14500
C2881       C  0.75519372  0.41958819  0.08345776    -0.05500
C2882       C  0.78241757  0.42009628  0.08388503    -0.05400
C2883       C  0.78339718  0.39383056  0.08379247    -0.23600
C2884       C  0.75715937  0.36644340  0.08334241     0.18600
C2885       C  0.72961908  0.36557137  0.08295597     0.15800
C2886       C  0.72879140  0.39212026  0.08297368    -0.18600
C2887       C  0.70339065  0.33813841  0.08257534    -0.20400
C2888       C  0.70442166  0.31186855  0.08260720    -0.13000
C2889       C  0.73169324  0.31244931  0.08298971     0.03700
C2890       C  0.75803455  0.33994424  0.08331608    -0.25100
H2891       H  0.80310935  0.44090220  0.08421447     0.08700
H2892       H  0.80470959  0.39495799  0.08408960     0.12300
H2893       H  0.70765083  0.39137786  0.08265874     0.12300
H2894       H  0.68206361  0.33697994  0.08228008     0.12000
H2895       H  0.68376491  0.29102513  0.08233189     0.12600
H2896       H  0.77920779  0.34075530  0.08361169     0.14500
C2897       C  0.73244175  0.15815386  0.08267931    -0.05500
C2898       C  0.70533233  0.13145708  0.08143439    -0.05400
C2899       C  0.70451147  0.10428825  0.08103215    -0.23600
C2900       C  0.73079348  0.10322542  0.08186036     0.18600
C2901       C  0.75820212  0.12988164  0.08313611     0.15800
C2902       C  0.75886840  0.15715626  0.08353493    -0.18600
C2903       C  0.78447168  0.12877755  0.08400118    -0.20400
C2904       C  0.78361233  0.10156697  0.08365133    -0.13000
C2905       C  0.75648055  0.07489360  0.08238992     0.03700
C2906       C  0.73010059  0.07595442  0.08146832    -0.25100
H2907       H  0.68463450  0.13153427  0.08075136     0.08700
H2908       H  0.68329410  0.08409896  0.08006591     0.12300
H2909       H  0.77992635  0.17754507  0.08448684     0.12300
H2910       H  0.80569468  0.14895527  0.08498562     0.12000
H2911       H  0.80427362  0.10142764  0.08439644     0.12600
H2912       H  0.70901824  0.05558614  0.08054138     0.14500
C2913       C  0.74668886  0.49647432  0.96773772    -0.05500
C2914       C  0.72093760  0.49248008  0.97582224    -0.05400
C2915       C  0.71878963  0.49154279  0.99358366    -0.23600
C2916       C  0.74269095  0.49534008  0.00360346     0.18600
C2917       C  0.76893139  0.99969044  0.99566843     0.15800
C2918       C  0.77058977  0.99968490  0.97768692    -0.18600
C2919       C  0.79308146  0.00444940  0.00590133    -0.20400
C2920       C  0.79115986  0.00480576  0.02378170    -0.13000
C2921       C  0.76490185  0.49991417  0.03168216     0.03700
C2922       C  0.74077349  0.49516636  0.02145300    -0.25100
H2923       H  0.70233921  0.48998408  0.96832763     0.08700
H2924       H  0.69858278  0.48828812  0.99948559     0.12300
H2925       H  0.79066401  0.00319922  0.97146948     0.12300
H2926       H  0.81345781  0.00802340  0.00008701     0.12000
H2927       H  0.81000967  0.00844178  0.03142890     0.12600
H2928       H  0.72048833  0.49166061  0.02739504     0.14500
C2929       C  0.00494170  0.25439719  0.96799943    -0.05500
C2930       C  0.52958711  0.25590135  0.97623482    -0.05400
C2931       C  0.53153814  0.25670591  0.99401857    -0.23600
C2932       C  0.50848430  0.25525213  0.00390841     0.18600
C2933       C  0.98340239  0.25351057  0.99581169     0.15800
C2934       C  0.98202812  0.25366238  0.97783139    -0.18600
C2935       C  0.96000446  0.25110865  0.00587686    -0.20400
C2936       C  0.96143633  0.25033038  0.02375787    -0.13000
C2937       C  0.98652068  0.25252326  0.03183117     0.03700
C2938       C  0.51001684  0.25513222  0.02178028    -0.25100
H2939       H  0.54749636  0.25659300  0.96885441     0.08700
H2940       H  0.55087474  0.25799644  0.00003746     0.12300
H2941       H  0.96282092  0.25218357  0.97151832     0.12300
H2942       H  0.94054548  0.24963456  0.99992695     0.12000
H2943       H  0.94318360  0.24853107  0.03128022     0.12600
H2944       H  0.52941253  0.25665294  0.02788213     0.14500
C2945       C  0.51654365  0.43866720  0.08336660    -0.05500
C2946       C  0.54389266  0.43945521  0.08269895    -0.05400
C2947       C  0.54511377  0.41333620  0.08241411    -0.23600
C2948       C  0.51900628  0.38586071  0.08287291     0.18600
C2949       C  0.99136106  0.38474973  0.08357448     0.15800
C2950       C  0.99028350  0.41113034  0.08375039    -0.18600
C2951       C  0.96526778  0.35725432  0.08415129    -0.20400
C2952       C  0.96653297  0.33114081  0.08408721    -0.13000
C2953       C  0.99390030  0.33196723  0.08336145     0.03700
C2954       C  0.52010765  0.35950601  0.08270536    -0.25100
H2955       H  0.56448032  0.46035773  0.08234378     0.08700
H2956       H  0.56649778  0.41464523  0.08187811     0.12300
H2957       H  0.96906911  0.41020850  0.08428872     0.12300
H2958       H  0.94387752  0.35592961  0.08469799     0.12000
H2959       H  0.94597514  0.31022093  0.08456431     0.12600
H2960       H  0.54133738  0.36045949  0.08217347     0.14500
C2961       C  0.99427616  0.17759782  0.08283994    -0.05500
C2962       C  0.96698356  0.15102509  0.08375096    -0.05400
C2963       C  0.96581992  0.12369019  0.08399531    -0.23600
C2964       C  0.99193765  0.12231025  0.08337340     0.18600
C2965       C  0.51953162  0.14883422  0.08245393     0.15800
C2966       C  0.52054121  0.17628655  0.08215790    -0.18600
C2967       C  0.54565024  0.14742900  0.08190476    -0.20400
C2968       C  0.54447359  0.12007636  0.08230864    -0.13000
C2969       C  0.51715982  0.09352628  0.08321031     0.03700
C2970       C  0.99090933  0.09486440  0.08369935    -0.25100
H2971       H  0.94639030  0.15132359  0.08429913     0.08700
H2972       H  0.94446599  0.10362277  0.08471419     0.12300
H2973       H  0.54173466  0.19656559  0.08148213     0.12300
H2974       H  0.56701175  0.16748768  0.08119251     0.12000
H2975       H  0.56505041  0.11973425  0.08186304     0.12600
H2976       H  0.96970396  0.07460239  0.08440460     0.14500
C2977       C  0.51950920  0.01630092  0.03232725    -0.05500
C2978       C  0.54475612  0.02031267  0.02356723    -0.05400
C2979       C  0.54472902  0.01865195  0.00568855    -0.23600
C2980       C  0.51960322  0.01340341  0.99629778     0.18600
C2981       C  0.99434138  0.50992300  0.00504422     0.15800
C2982       C  0.99436944  0.51109153  0.02293635    -0.18600
C2983       C  0.96947609  0.50551489  0.99576303    -0.20400
C2984       C  0.96967291  0.50481395  0.97793857    -0.13000
C2985       C  0.49445710  0.50784864  0.96908838     0.03700
C2986       C  0.51933559  0.01188722  0.97833894    -0.25100
H2987       H  0.56431559  0.02420946  0.03055813     0.08700
H2988       H  0.56435285  0.02152254  0.99921260     0.12300
H2989       H  0.97482313  0.50817195  0.02955733     0.12300
H2990       H  0.94997947  0.50290039  0.00228211     0.12000
H2991       H  0.95029069  0.50166685  0.97103510     0.12600
H2992       H  0.53867364  0.01462062  0.97156160     0.14500
C2993       C  0.75166577  0.23686147  0.46815208    -0.05500
C2994       C  0.73556106  0.20878772  0.47576845    -0.05400
C2995       C  0.73369992  0.20577847  0.49357073    -0.23600
C2996       C  0.74789721  0.23078900  0.50414699     0.18600
C2997       C  0.76391778  0.25916874  0.49665857     0.15800
C2998       C  0.76572325  0.26202895  0.47875049    -0.18600
C2999       C  0.77799521  0.28420018  0.50721877    -0.20400
C3000       C  0.77646359  0.28115987  0.52500917    -0.13000
C3001       C  0.76091795  0.25302619  0.53263869     0.03700
C3002       C  0.74652078  0.22788457  0.52206394    -0.25100
H3003       H  0.72446818  0.18904410  0.46794681     0.08700
H3004       H  0.72124917  0.18384383  0.49906558     0.12300
H3005       H  0.77817305  0.28384365  0.47308851     0.12300
H3006       H  0.79033755  0.30614702  0.50172262     0.12000
H3007       H  0.78777421  0.30091072  0.53281216     0.12600
H3008       H  0.73437203  0.20606648  0.52775112     0.14500
C3009       C  0.74484234  0.51370989  0.46700680    -0.05500
C3010       C  0.75434405  0.04134956  0.47479591    -0.05400
C3011       C  0.75585023  0.04422712  0.49257222    -0.23600
C3012       C  0.74788299  0.01951906  0.50295759     0.18600
C3013       C  0.73809595  0.49154082  0.49532758     0.15800
C3014       C  0.73665482  0.48880011  0.47740417    -0.18600
C3015       C  0.72994009  0.46682016  0.50577757    -0.20400
C3016       C  0.73146982  0.46978925  0.52358716    -0.13000
C3017       C  0.74137031  0.49756049  0.53129569     0.03700
C3018       C  0.74955693  0.02236692  0.52084268    -0.25100
H3019       H  0.76070612  0.06089414  0.46712649     0.08700
H3020       H  0.76330880  0.06582224  0.49819464     0.12300
H3021       H  0.72924706  0.46735072  0.47158112     0.12300
H3022       H  0.72235526  0.44518229  0.50018496     0.12000
H3023       H  0.72503121  0.45031865  0.53134092     0.12600
H3024       H  0.75705333  0.04387487  0.52661211     0.14500
C3025       C  0.00676475  0.23612724  0.46746364    -0.05500
C3026       C  0.99515538  0.20797844  0.47497223    -0.05400
C3027       C  0.99407265  0.20471909  0.49271059    -0.23600
C3028       C  0.00447694  0.22953642  0.50335772     0.18600
C3029       C  0.51624533  0.25799276  0.49601364     0.15800
C3030       C  0.51742490  0.26114404  0.47811043    -0.18600
C3031       C  0.52649998  0.28276360  0.50672555    -0.20400
C3032       C  0.52514057  0.27939435  0.52449909    -0.13000
C3033       C  0.01352564  0.25119789  0.53193553     0.03700
C3034       C  0.00320970  0.22631930  0.52122177    -0.25100
H3035       H  0.98684371  0.18831390  0.46710453     0.08700
H3036       H  0.98499081  0.18274209  0.49809710     0.12300
H3037       H  0.52633937  0.28295067  0.47250033     0.12300
H3038       H  0.53553429  0.30475076  0.50136596     0.12000
H3039       H  0.53317247  0.29894345  0.53243954     0.12600
H3040       H  0.99413417  0.20444030  0.52676090     0.14500
C3041       C  0.93391833  0.25001891  0.41802589    -0.05500
C3042       C  0.93699675  0.27837348  0.41864040    -0.05400
C3043       C  0.91212964  0.28182302  0.41886198    -0.23600
C3044       C  0.88366945  0.25698121  0.41844074     0.18600
C3045       C  0.88024695  0.22833732  0.41792714     0.15800
C3046       C  0.90536843  0.22502551  0.41776527    -0.18600
C3047       C  0.85174590  0.20351316  0.41745288    -0.20400
C3048       C  0.82688668  0.20702730  0.41735384    -0.13000
C3049       C  0.83004584  0.23542001  0.41779093     0.03700
C3050       C  0.85860098  0.26033706  0.41841166    -0.25100
H3051       H  0.95871195  0.29800488  0.41887256     0.08700
H3052       H  0.91517501  0.30394240  0.41926857     0.12300
H3053       H  0.90267352  0.20304005  0.41729324     0.12300
H3054       H  0.84867185  0.18138281  0.41707095     0.12000
H3055       H  0.80513966  0.18745636  0.41690896     0.12600
H3056       H  0.86136157  0.28235657  0.41873764     0.14500
C3057       C  0.68535774  0.25327146  0.41590932    -0.05500
C3058       C  0.68711607  0.28039550  0.41983890    -0.05400
C3059       C  0.66158221  0.28276564  0.42018404    -0.23600
C3060       C  0.63386306  0.25806185  0.41656327     0.18600
C3061       C  0.63188254  0.23075183  0.41244955     0.15800
C3062       C  0.65759173  0.22854128  0.41214926    -0.18600
C3063       C  0.60418053  0.20603414  0.40884287    -0.20400
C3064       C  0.57857824  0.20823122  0.40950824    -0.13000
C3065       C  0.58024682  0.23521726  0.41369600     0.03700
C3066       C  0.60807808  0.26014278  0.41710016    -0.25100
H3067       H  0.70821259  0.29972675  0.42283119     0.08700
H3068       H  0.66349797  0.30387572  0.42337475     0.12300
H3069       H  0.65592911  0.20749889  0.40905043     0.12300
H3070       H  0.60228869  0.18494969  0.40561010     0.12000
H3071       H  0.55744891  0.18878731  0.40672925     0.12600
H3072       H  0.60967933  0.28110595  0.42034845     0.14500
C3073       C  0.48148468  0.48238875  0.53230418    -0.05500
C3074       C  0.96846921  0.45556802  0.52315823    -0.05400
C3075       C  0.96804963  0.45538315  0.50528782    -0.23600
C3076       C  0.98056300  0.48202609  0.49614396     0.18600
C3077       C  0.49365932  0.00918522  0.50511684     0.15800
C3078       C  0.49410867  0.00921587  0.52313549    -0.18600
C3079       C  0.50603955  0.03579539  0.49588165    -0.20400
C3080       C  0.50546675  0.03549490  0.47795701    -0.13000
C3081       C  0.49259684  0.50858968  0.46890566     0.03700
C3082       C  0.98016807  0.48190405  0.47817390    -0.25100
H3083       H  0.95863174  0.43460091  0.52983298     0.08700
H3084       H  0.95790467  0.43434922  0.49861337     0.12300
H3085       H  0.50421024  0.03008258  0.52999012     0.12300
H3086       H  0.51617371  0.05685860  0.50251990     0.12000
H3087       H  0.51521827  0.05635281  0.47117368     0.12600
H3088       H  0.97010594  0.46094301  0.47141331     0.14500
C3089       C  0.82328895  0.01669348  0.41559503    -0.05500
C3090       C  0.84889637  0.04480286  0.41531126    -0.05400
C3091       C  0.87699939  0.04760488  0.41557117    -0.23600
C3092       C  0.87997246  0.02233823  0.41614231     0.18600
C3093       C  0.85434969  0.49400364  0.41644449     0.15800
C3094       C  0.82626270  0.49137420  0.41614706    -0.18600
C3095       C  0.85720420  0.46870863  0.41705775    -0.20400
C3096       C  0.88519391  0.47138927  0.41734519    -0.13000
C3097       C  0.91087272  0.99940710  0.41700399     0.03700
C3098       C  0.90807335  0.02487106  0.41641244    -0.25100
H3099       H  0.84721347  0.06465854  0.41489831     0.08700
H3100       H  0.89638814  0.06951803  0.41534137     0.12300
H3101       H  0.80671372  0.46955877  0.41639743     0.12300
H3102       H  0.83777615  0.44682383  0.41730628     0.12000
H3103       H  0.88671783  0.45144774  0.41778994     0.12600
H3104       H  0.92770079  0.04662898  0.41615601     0.14500
C3105       C  0.57193025  0.01388782  0.41667595    -0.05500
C3106       C  0.59704039  0.04181414  0.41393871    -0.05400
C3107       C  0.62521798  0.04501107  0.41321938    -0.23600
C3108       C  0.62884372  0.02035232  0.41529006     0.18600
C3109       C  0.60380309  0.49217478  0.41817834     0.15800
C3110       C  0.57549842  0.48910101  0.41882191    -0.18600
C3111       C  0.60752240  0.46756056  0.42032118    -0.20400
C3112       C  0.63575463  0.47080412  0.41951875    -0.13000
C3113       C  0.66077583  0.99871735  0.41657631     0.03700
C3114       C  0.65710607  0.02343749  0.41450460    -0.25100
H3115       H  0.59489998  0.06125398  0.41220469     0.08700
H3116       H  0.64416462  0.06676961  0.41100546     0.12300
H3117       H  0.55631584  0.46747035  0.42099317     0.12300
H3118       H  0.58861225  0.44580654  0.42259853     0.12000
H3119       H  0.63799663  0.45142299  0.42124823     0.12600
H3120       H  0.67621814  0.04509440  0.41227460     0.14500
C3121       C  0.75764983  0.24978156  0.19786949    -0.05500
C3122       C  0.78431716  0.26545201  0.18878012    -0.05400
C3123       C  0.78437420  0.26538058  0.17089613    -0.23600
C3124       C  0.75776824  0.24958095  0.16177032     0.18600
C3125       C  0.73083047  0.23354843  0.17074472     0.15800
C3126       C  0.73094157  0.23378184  0.18870554    -0.18600
C3127       C  0.70424608  0.21764359  0.16159128    -0.20400
C3128       C  0.70429304  0.21790923  0.14369548    -0.13000
C3129       C  0.73093259  0.23401544  0.13464183     0.03700
C3130       C  0.75764688  0.24966237  0.14382735    -0.25100
H3131       H  0.80516222  0.27784355  0.19550208     0.08700
H3132       H  0.80524528  0.27774359  0.16419891     0.12300
H3133       H  0.71019959  0.22140851  0.19553506     0.12300
H3134       H  0.68338835  0.20510569  0.16827519     0.12000
H3135       H  0.68347626  0.20553776  0.13694263     0.12600
H3136       H  0.77841311  0.26210661  0.13702800     0.14500
C3137       C  0.75337639  0.24017820  0.30081473    -0.05500
C3138       C  0.72946773  0.21503346  0.30818958    -0.05400
C3139       C  0.72692410  0.21159131  0.32592901    -0.23600
C3140       C  0.74792109  0.23356532  0.33668520     0.18600
C3141       C  0.77196718  0.25911833  0.32943747     0.15800
C3142       C  0.77484284  0.26204009  0.31152705    -0.18600
C3143       C  0.79242462  0.28147537  0.34025123    -0.20400
C3144       C  0.78905682  0.27860591  0.35802551    -0.13000
C3145       C  0.76549425  0.25309884  0.36536127     0.03700
C3146       C  0.74505742  0.23055095  0.35455853    -0.25100
H3147       H  0.71274892  0.19784574  0.30017747     0.08700
H3148       H  0.70831853  0.19189646  0.33123418     0.12300
H3149       H  0.79321059  0.28162878  0.30594677     0.12300
H3150       H  0.81091323  0.30128684  0.33496712     0.12000
H3151       H  0.80514950  0.29624822  0.36606523     0.12600
H3152       H  0.72665501  0.21088127  0.36005004     0.14500
C3153       C  0.75606535  0.32424308  0.25184864    -0.05500
C3154       C  0.78309033  0.35088036  0.25370915    -0.05400
C3155       C  0.78398688  0.37808147  0.25402633    -0.23600
C3156       C  0.75788147  0.37930306  0.25241131     0.18600
C3157       C  0.73050294  0.35272892  0.25065166     0.15800
C3158       C  0.72972948  0.32535597  0.25045992    -0.18600
C3159       C  0.70443395  0.35405971  0.24894135    -0.20400
C3160       C  0.70550896  0.38139812  0.24882517    -0.13000
C3161       C  0.73264778  0.40798652  0.25049981     0.03700
C3162       C  0.75877686  0.40668524  0.25238378    -0.25100
H3163       H  0.80371330  0.35074724  0.25486066     0.08700
H3164       H  0.80516870  0.39819922  0.25540706     0.12300
H3165       H  0.70873749  0.30503317  0.24900523     0.12300
H3166       H  0.68322179  0.33397174  0.24758550     0.12000
H3167       H  0.68501085  0.38170314  0.24739492     0.12600
H3168       H  0.77985384  0.42696850  0.25367107     0.14500
C3169       C  0.73487609  0.06377445  0.24851158    -0.05500
C3170       C  0.70790274  0.06347590  0.25035437    -0.05400
C3171       C  0.70705386  0.08979681  0.25038663    -0.23600
C3172       C  0.73315344  0.11701721  0.24848809     0.18600
C3173       C  0.76044152  0.11770885  0.24649636     0.15800
C3174       C  0.76115971  0.09108882  0.24656278    -0.18600
C3175       C  0.78650801  0.14504043  0.24457412    -0.20400
C3176       C  0.78558657  0.17139141  0.24486759    -0.13000
C3177       C  0.75857022  0.17092707  0.24699823     0.03700
C3178       C  0.73238087  0.14353793  0.24866883    -0.25100
H3179       H  0.68734609  0.04280222  0.25192896     0.08700
H3180       H  0.68594986  0.08884735  0.25194552     0.12300
H3181       H  0.78209076  0.09163717  0.24506474     0.12300
H3182       H  0.80763406  0.14606167  0.24296196     0.12000
H3183       H  0.80608154  0.19218108  0.24346368     0.12600
H3184       H  0.71140549  0.14283947  0.25033721     0.14500
C3185       C  0.74247054  0.99318428  0.13375597    -0.05500
C3186       C  0.71444730  0.48620039  0.14003366    -0.05400
C3187       C  0.70893896  0.48417823  0.15758466    -0.23600
C3188       C  0.73128861  0.48887054  0.16922036     0.18600
C3189       C  0.75963183  0.99609261  0.16306879     0.15800
C3190       C  0.76510342  0.99836855  0.14538350    -0.18600
C3191       C  0.78196379  0.00076348  0.17472080    -0.20400
C3192       C  0.77632740  0.99840323  0.19227366    -0.13000
C3193       C  0.74821520  0.99118139  0.19853350     0.03700
C3194       C  0.72573518  0.48638651  0.18688978    -0.25100
H3195       H  0.69668828  0.48232342  0.13133690     0.08700
H3196       H  0.68713450  0.47876105  0.16204617     0.12300
H3197       H  0.78676782  0.00370729  0.14068363     0.12300
H3198       H  0.80379337  0.00624905  0.17026906     0.12000
H3199       H  0.79403037  0.00213369  0.20097684     0.12600
H3200       H  0.70403031  0.48095509  0.19156336     0.14500
C3201       C  0.74196230  0.00418143  0.36416504    -0.05500
C3202       C  0.76663712  0.02669124  0.35566045    -0.05400
C3203       C  0.76849383  0.02679850  0.33789030    -0.23600
C3204       C  0.74535680  0.00473563  0.32824353     0.18600
C3205       C  0.72005180  0.48218664  0.33655899     0.15800
C3206       C  0.71871348  0.48173894  0.35457038    -0.18600
C3207       C  0.69659853  0.46074466  0.32665566    -0.20400
C3208       C  0.69841103  0.46153475  0.30873762    -0.13000
C3209       C  0.72390918  0.98345288  0.30049276     0.03700
C3210       C  0.74721210  0.00501734  0.31038523    -0.25100
H3211       H  0.78478907  0.04408950  0.36283088     0.08700
H3212       H  0.78797282  0.04427124  0.33168434     0.12300
H3213       H  0.69946911  0.46448073  0.36107378     0.12300
H3214       H  0.67690685  0.44339993  0.33275420     0.12000
H3215       H  0.68018807  0.44468575  0.30135088     0.12600
H3216       H  0.76685005  0.02226004  0.30415548     0.14500
C3217       C  0.00056924  0.25284415  0.19886946    -0.05500
C3218       C  0.97139009  0.23720252  0.19254981    -0.05400
C3219       C  0.96575380  0.23540278  0.17499746    -0.23600
C3220       C  0.98918607  0.24919051  0.16338315     0.18600
C3221       C  0.51859796  0.26507182  0.16959704     0.15800
C3222       C  0.52410866  0.26680554  0.18726620    -0.18600
C3223       C  0.54205152  0.27890668  0.15802530    -0.20400
C3224       C  0.53651426  0.27682378  0.14048006    -0.13000
C3225       C  0.00740073  0.26089900  0.13409773     0.03700
C3226       C  0.98374448  0.24723999  0.14567789    -0.25100
H3227       H  0.95278601  0.22630695  0.20120077     0.08700
H3228       H  0.94306566  0.22317461  0.17051649     0.12300
H3229       H  0.54667773  0.27901795  0.19195929     0.12300
H3230       H  0.56471913  0.29123480  0.16253197     0.12000
H3231       H  0.55519090  0.28766764  0.13187518     0.12600
H3232       H  0.96120931  0.23494976  0.14094111     0.14500
C3233       C  0.00523255  0.24433159  0.36457935    -0.05500
C3234       C  0.98391333  0.21884600  0.35595992    -0.05400
C3235       C  0.98313794  0.21757133  0.33817938    -0.23600
C3236       C  0.00385785  0.24166194  0.32859673     0.18600
C3237       C  0.52556673  0.26748976  0.33697708     0.15800
C3238       C  0.52594217  0.26881171  0.35498780    -0.18600
C3239       C  0.54656996  0.29128731  0.32713953    -0.20400
C3240       C  0.54589680  0.28947225  0.30922017    -0.13000
C3241       C  0.02393279  0.26403662  0.30091743     0.03700
C3242       C  0.00308336  0.24022100  0.31072979    -0.25100
H3243       H  0.96769156  0.19970211  0.36299636     0.08700
H3244       H  0.96641007  0.19761816  0.33192080     0.12300
H3245       H  0.54261116  0.28848961  0.36149330     0.12300
H3246       H  0.56343575  0.31127300  0.33328849     0.12000
H3247       H  0.56200787  0.30818389  0.30185268     0.12600
H3248       H  0.98615753  0.22042292  0.30441540     0.14500
C3249       C  0.50683758  0.33186690  0.25049983    -0.05500
C3250       C  0.97914030  0.32999399  0.25214216    -0.05400
C3251       C  0.97700230  0.35562916  0.25267068    -0.23600
C3252       C  0.00254169  0.38359081  0.25166098     0.18600
C3253       C  0.53052548  0.38577216  0.24996872     0.15800
C3254       C  0.53247801  0.35992561  0.24932140    -0.18600
C3255       C  0.55606675  0.41377349  0.24905242    -0.20400
C3256       C  0.55391322  0.43941427  0.24986205    -0.13000
C3257       C  0.02617077  0.43747850  0.25149823     0.03700
C3258       C  0.00055051  0.40939486  0.25235422    -0.25100
H3259       H  0.95909508  0.30868611  0.25303512     0.08700
H3260       H  0.95536531  0.35358262  0.25395442     0.12300
H3261       H  0.55401591  0.36170935  0.24805842     0.12300
H3262       H  0.57771118  0.41584805  0.24772609     0.12000
H3263       H  0.57393312  0.46075696  0.24903862     0.12600
H3264       H  0.97899016  0.40756608  0.25359074     0.14500
C3265       C  0.52300420  0.18618815  0.24918000    -0.05500
C3266       C  0.55147698  0.18949915  0.24893364    -0.05400
C3267       C  0.55517087  0.16476797  0.24879291    -0.23600
C3268       C  0.53045633  0.13621109  0.24885290     0.18600
C3269       C  0.00170852  0.13257419  0.24898854     0.15800
C3270       C  0.99815734  0.15754873  0.24918611    -0.18600
C3271       C  0.97699661  0.10400373  0.24897357    -0.20400
C3272       C  0.98070979  0.07927919  0.24897084    -0.13000
C3273       C  0.00919955  0.08262439  0.24900578     0.03700
C3274       C  0.53402467  0.11125707  0.24886405    -0.25100
H3275       H  0.57100659  0.21129203  0.24892115     0.08700
H3276       H  0.57736919  0.16799215  0.24867163     0.12300
H3277       H  0.97608557  0.15466959  0.24932473     0.12300
H3278       H  0.95479354  0.10076694  0.24903790     0.12000
H3279       H  0.96119278  0.05747695  0.24906406     0.12600
H3280       H  0.55610579  0.11415502  0.24885761     0.14500
C3281       C  0.50922747  0.01106045  0.13513379    -0.05500
C3282       C  0.98123405  0.49994541  0.14277895    -0.05400
C3283       C  0.97797293  0.49698950  0.16051319    -0.23600
C3284       C  0.00263480  0.50502552  0.17099199     0.18600
C3285       C  0.53089087  0.01612470  0.16346418     0.15800
C3286       C  0.53402702  0.01911520  0.14560362    -0.18600
C3287       C  0.55555636  0.02418957  0.17394870    -0.20400
C3288       C  0.55239019  0.02186245  0.19170840    -0.13000
C3289       C  0.52447030  0.01121336  0.19936134     0.03700
C3290       C  0.99956431  0.50245888  0.18886784    -0.25100
H3291       H  0.96173209  0.49352848  0.13502613     0.08700
H3292       H  0.95614799  0.48846350  0.16602860     0.12300
H3293       H  0.55569317  0.02753321  0.13987434     0.12300
H3294       H  0.57736385  0.03260293  0.16843077     0.12000
H3295       H  0.57192881  0.02860169  0.19948677     0.12600
H3296       H  0.97793603  0.49427459  0.19460373     0.14500
C3297       C  0.51439017  0.01453977  0.30215241    -0.05500
C3298       C  0.53698031  0.03955237  0.31051205    -0.05400
C3299       C  0.53612112  0.04308752  0.32818285    -0.23600
C3300       C  0.51293778  0.02136549  0.33794813     0.18600
C3301       C  0.99029613  0.49585802  0.32973961     0.15800
C3302       C  0.99090322  0.49281324  0.31186141    -0.18600
C3303       C  0.96767729  0.47366016  0.33960434    -0.20400
C3304       C  0.96770425  0.47649265  0.35739785    -0.13000
C3305       C  0.48991014  0.00187312  0.36566443     0.03700
C3306       C  0.51231230  0.02446461  0.35580740    -0.25100
H3307       H  0.55521067  0.05670314  0.30330894     0.08700
H3308       H  0.55374232  0.06271279  0.33422598     0.12300
H3309       H  0.97347436  0.47335291  0.30556674     0.12300
H3310       H  0.95020361  0.45389632  0.33359122     0.12000
H3311       H  0.95022655  0.45879807  0.36473822     0.12600
H3312       H  0.52975969  0.04393937  0.36208526     0.14500
O3313       O  0.99698563  0.99696903  0.22568608    -0.72000
O3314       O  0.99247670  0.99649705  0.27448801    -0.72300
O3315       O  0.99042382  0.53057759  0.24940294    -0.72100
O3316       O  0.99847911  0.96241995  0.25067974    -0.72100
O3317       O  0.54620449  0.99006227  0.25270926    -0.72100
O3318       O  0.53820901  0.55866890  0.25012010    -0.72100
O3319       O  0.54011386  0.52555507  0.27563633    -0.72000
O3320       O  0.54483271  0.52376949  0.22737737    -0.72200
V3321       V  0.99550935  0.99710881  0.25010127     1.35200
V3322       V  0.54140341  0.52392017  0.25145991     1.35200
C3323       C  0.52186638  0.51044323  0.21824046     0.77200
C3324       C  0.51561100  0.51178324  0.28333834     0.77300
C3325       C  0.01282873  0.55625494  0.24947599     0.77100
C3326       C  0.02360289  0.96447075  0.25174217     0.77100
O3327       O  0.98676069  0.77936499  0.25236836    -0.72000
O3328       O  0.99420378  0.71036170  0.25077429    -0.72300
O3329       O  0.99579362  0.74669888  0.27550337    -0.72100
O3330       O  0.98443401  0.74260406  0.22771165    -0.72100
O3331       O  0.53190932  0.76868847  0.22379344    -0.72100
O3332       O  0.54307100  0.77607320  0.27226421    -0.72100
O3333       O  0.54180932  0.73824936  0.24824989    -0.72000
O3334       O  0.53395106  0.80654410  0.24776055    -0.72200
V3335       V  0.99124065  0.74530098  0.25152687     1.35200
V3336       V  0.53680410  0.77181595  0.24807261     1.35200
C3337       C  0.50918743  0.80477053  0.25017362     0.77200
C3338       C  0.51945391  0.71263264  0.24941070     0.77300
C3339       C  0.02105004  0.76233232  0.28211480     0.77100
C3340       C  0.00601123  0.75478850  0.21753677     0.77100
O3341       O  0.75748772  0.96102601  0.25255065    -0.72000
O3342       O  0.75906642  0.53487039  0.25001079    -0.72300
O3343       O  0.75278030  0.49729988  0.27519897    -0.72100
O3344       O  0.76435958  0.49891444  0.22744804    -0.72100
O3345       O  0.71692967  0.97788756  0.22332941    -0.72100
O3346       O  0.70514347  0.97155101  0.27171696    -0.72100
O3347       O  0.71118459  0.51112850  0.24769586    -0.72000
O3348       O  0.71029429  0.93801555  0.24734039    -0.72200
V3349       V  0.75749221  0.49755357  0.25123897     1.35200
V3350       V  0.71177829  0.97508929  0.24757332     1.35200
C3351       C  0.73357463  0.93688257  0.25013424     0.77200
C3352       C  0.73517283  0.53549948  0.24870971     0.77300
C3353       C  0.72721178  0.48396894  0.28169183     0.77100
C3354       C  0.74281802  0.48917244  0.21718356     0.77100
O3355       O  0.73193058  0.77106899  0.25049771    -0.72000
O3356       O  0.73343959  0.69882447  0.24766256    -0.72300
O3357       O  0.73149615  0.73191174  0.27323208    -0.72100
O3358       O  0.73333650  0.73718637  0.22490124    -0.72100
O3359       O  0.78136960  0.76128315  0.22539980    -0.72100
O3360       O  0.77950660  0.75748721  0.27420642    -0.72100
O3361       O  0.78144409  0.72357174  0.24873101    -0.72000
O3362       O  0.77996085  0.79545834  0.25080828    -0.72200
V3363       V  0.73349937  0.73529970  0.24909403     1.35200
V3364       V  0.77964741  0.75900516  0.24977379     1.35200
C3365       C  0.75585024  0.79569355  0.25105309     0.77200
C3366       C  0.75776452  0.69890790  0.24778088     0.77300
C3367       C  0.75500797  0.74350910  0.28199174     0.77100
C3368       C  0.75753381  0.74956874  0.21683094     0.77100
O3369       O  0.50173537  0.53153405  0.44114741    -0.72000
O3370       O  0.50157636  0.52850692  0.39228075    -0.72300
O3371       O  0.96371527  0.52693751  0.41634823    -0.72100
O3372       O  0.53943310  0.53354243  0.41700955    -0.72100
O3373       O  0.51896162  0.98566869  0.41734656    -0.72100
O3374       O  0.94303118  0.97913729  0.41805375    -0.72100
O3375       O  0.97945335  0.98054305  0.39347819    -0.72000
O3376       O  0.98212677  0.98378636  0.44194974    -0.72200
V3377       V  0.50118671  0.52922022  0.41672709     1.35200
V3378       V  0.98131512  0.98323521  0.41769256     1.35200
C3379       C  0.49215909  0.00805116  0.44989075     0.77200
C3380       C  0.49030349  0.50383928  0.38457514     0.77300
C3381       C  0.94041468  0.50194210  0.41716197     0.77100
C3382       C  0.54220020  0.51083254  0.41707895     0.77100
O3383       O  0.98606901  0.76940588  0.41719809    -0.72000
O3384       O  0.55490311  0.76241732  0.41616239    -0.72300
O3385       O  0.52073893  0.76757735  0.39222941    -0.72100
O3386       O  0.51998404  0.76365567  0.44109760    -0.72100
O3387       O  0.99412408  0.71575139  0.43948304    -0.72100
O3388       O  0.99168802  0.71994202  0.39137130    -0.72100
O3389       O  0.52764251  0.71470690  0.41378561    -0.72000
O3390       O  0.95846556  0.72155927  0.41697721    -0.72200
V3391       V  0.51989835  0.76487779  0.41665295     1.35200
V3392       V  0.99352664  0.71894124  0.41543805     1.35200
C3393       C  0.96052457  0.74678617  0.41741225     0.77200
C3394       C  0.55312694  0.73748219  0.41457002     0.77300
C3395       C  0.00600264  0.74417506  0.38349981     0.77100
C3396       C  0.00708309  0.73878760  0.44858543     0.77100
O3397       O  0.69399833  0.97980821  0.41717309    -0.72000
O3398       O  0.77051068  0.98829084  0.41547472    -0.72300
O3399       O  0.73457406  0.98663984  0.44062343    -0.72100
O3400       O  0.72986120  0.98165006  0.39190573    -0.72100
O3401       O  0.75212817  0.52963757  0.39064413    -0.72100
O3402       O  0.75195623  0.53402887  0.43897406    -0.72100
O3403       O  0.79030968  0.53609762  0.41541332    -0.72000
O3404       O  0.71348205  0.52732423  0.41425503    -0.72200
V3405       V  0.73261528  0.98498525  0.41625233     1.35200
V3406       V  0.75153663  0.53083432  0.41483361     1.35200
C3407       C  0.69063496  0.50209691  0.41592099     0.77200
C3408       C  0.79350894  0.51360985  0.41546123     0.77300
C3409       C  0.74369689  0.01125576  0.44810272     0.77100
C3410       C  0.74095196  0.50501820  0.38300291     0.77100
O3411       O  0.73778807  0.77289101  0.41742079    -0.72000
O3412       O  0.80601561  0.76427390  0.41870168    -0.72300
O3413       O  0.77537635  0.77247497  0.39384626    -0.72100
O3414       O  0.76876291  0.76490898  0.44225523    -0.72100
O3415       O  0.74114719  0.71729449  0.43963183    -0.72100
O3416       O  0.74694491  0.72495740  0.39114104    -0.72100
O3417       O  0.77801494  0.71673256  0.41585387    -0.72000
O3418       O  0.71001152  0.72525746  0.41492177    -0.72200
V3419       V  0.77142496  0.76772548  0.41799488     1.35200
V3420       V  0.74458074  0.72200064  0.41543958     1.35200
C3421       C  0.71219161  0.75043529  0.41604781     0.77200
C3422       C  0.80363053  0.73898020  0.41745561     0.77300
C3423       C  0.76240361  0.75003942  0.38421604     0.77100
C3424       C  0.75392429  0.73981151  0.44924134     0.77100
O3425       O  0.99399323  0.00493223  0.05880735    -0.72000
O3426       O  0.98910665  0.00207689  0.10703855    -0.72300
O3427       O  0.99208930  0.54036007  0.08304994    -0.72100
O3428       O  0.99171440  0.96700923  0.08276593    -0.72100
O3429       O  0.53964857  0.99109315  0.08469608    -0.72100
O3430       O  0.54007954  0.56383570  0.08430899    -0.72100
O3431       O  0.53704486  0.52617487  0.10892916    -0.72000
O3432       O  0.54198775  0.52795763  0.06017942    -0.72200
V3433       V  0.99266642  0.00407175  0.08295497     1.35200
V3434       V  0.53876201  0.52686606  0.08451833     1.35200
C3435       C  0.51861674  0.51654228  0.05121031     0.77200
C3436       C  0.51204368  0.51336188  0.11627244     0.77300
C3437       C  0.51631638  0.56468725  0.08356411     0.77100
C3438       C  0.51580581  0.96666183  0.08364314     0.77100
O3439       O  0.97121542  0.70712136  0.08395419    -0.72000
O3440       O  0.97124645  0.77962374  0.08531612    -0.72300
O3441       O  0.96667528  0.74236027  0.06035622    -0.72100
O3442       O  0.97658896  0.74509028  0.10891112    -0.72100
O3443       O  0.52420178  0.77029382  0.10538077    -0.72100
O3444       O  0.51444049  0.76468494  0.05746414    -0.72100
O3445       O  0.51876842  0.80378859  0.08127119    -0.72000
O3446       O  0.51908301  0.73076433  0.08166606    -0.72200
V3447       V  0.97233614  0.74396249  0.08457837     1.35200
V3448       V  0.51818334  0.76691241  0.08150512     1.35200
C3449       C  0.99499797  0.70638811  0.08278660     0.77200
C3450       C  0.99479369  0.80405124  0.08332254     0.77300
C3451       C  0.98913027  0.75310366  0.05066081     0.77100
C3452       C  0.00233706  0.75859767  0.11538356     0.77100
O3453       O  0.78411179  0.51019422  0.06037064    -0.72000
O3454       O  0.77334186  0.50667962  0.10879119    -0.72300
O3455       O  0.77855024  0.97213765  0.08508169    -0.72100
O3456       O  0.77942598  0.54520748  0.08410461    -0.72100
O3457       O  0.73175859  0.52190691  0.08062846    -0.72100
O3458       O  0.73089057  0.94836862  0.08155557    -0.72100
O3459       O  0.72572915  0.98333568  0.10499181    -0.72000
O3460       O  0.73638200  0.98694181  0.05711223    -0.72200
V3461       V  0.77794590  0.50812128  0.08452638     1.35200
V3462       V  0.73214039  0.98557502  0.08113308     1.35200
C3463       C  0.76185414  0.49905111  0.05050058     0.77200
C3464       C  0.74752763  0.49449729  0.11509852     0.77300
C3465       C  0.75473684  0.94778681  0.08339719     0.77100
C3466       C  0.75581688  0.54614223  0.08231877     0.77100
O3467       O  0.70859357  0.75980377  0.08318133    -0.72000
O3468       O  0.70901887  0.68740359  0.08188835    -0.72300
O3469       O  0.70757927  0.72197243  0.10696656    -0.72100
O3470       O  0.71065932  0.72557255  0.05816509    -0.72100
O3471       O  0.75864251  0.74746145  0.05957280    -0.72100
O3472       O  0.75554643  0.74791792  0.10780278    -0.72100
O3473       O  0.75689982  0.71119233  0.08420232    -0.72000
O3474       O  0.75663099  0.78417982  0.08306127    -0.72200
V3475       V  0.70986207  0.72414153  0.08258377     1.35200
V3476       V  0.75598880  0.74726921  0.08364196     1.35200
C3477       C  0.73242406  0.78437964  0.08308220     0.77200
C3478       C  0.73288651  0.68678900  0.08295949     0.77300
C3479       C  0.73123232  0.73460758  0.11569722     0.77100
C3480       C  0.73540714  0.73663942  0.05062683     0.77100
O3481       O  0.94580988  0.98024027  0.91714137    -0.72000
O3482       O  0.51478812  0.55670438  0.91891898    -0.72300
O3483       O  0.98080973  0.52020513  0.89381500    -0.72100
O3484       O  0.97941084  0.51677531  0.94216919    -0.72100
O3485       O  0.50925584  0.99904170  0.94175226    -0.72100
O3486       O  0.50664775  0.99805883  0.89301379    -0.72100
O3487       O  0.54218619  0.53633821  0.91695621    -0.72000
O3488       O  0.97372123  0.96033338  0.91781112    -0.72200
V3489       V  0.98075349  0.51812054  0.91798771     1.35200
V3490       V  0.50739446  0.99879885  0.91739620     1.35200
C3491       C  0.94807548  0.95717928  0.91737937     0.77200
C3492       C  0.54032216  0.55949873  0.91810575     0.77300
C3493       C  0.49349720  0.00935069  0.88510356     0.77100
C3494       C  0.49442960  0.00782865  0.95023534     0.77100
O3495       O  0.97396191  0.70154844  0.91829371    -0.72000
O3496       O  0.55074890  0.77015431  0.91626982    -0.72300
O3497       O  0.51364469  0.73848155  0.94140030    -0.72100
O3498       O  0.51177110  0.73319534  0.89316410    -0.72100
O3499       O  0.99306963  0.76211947  0.89170189    -0.72100
O3500       O  0.99178695  0.76463568  0.94048602    -0.72100
O3501       O  0.53041282  0.79768937  0.91599791    -0.72000
O3502       O  0.95430018  0.72955501  0.91616853    -0.72200
V3503       V  0.51207256  0.73631896  0.91726579     1.35200
V3504       V  0.99278207  0.76296844  0.91610631     1.35200
C3505       C  0.95098066  0.70395100  0.91740367     0.77200
C3506       C  0.55358637  0.79572057  0.91595519     0.77300
C3507       C  0.00315704  0.75238200  0.94919859     0.77100
C3508       C  0.00266620  0.74708988  0.88413941     0.77100
O3509       O  0.72168357  0.95429393  0.91513017    -0.72000
O3510       O  0.79732473  0.52303672  0.91626590    -0.72300
O3511       O  0.75983354  0.98678743  0.94006726    -0.72100
O3512       O  0.75917111  0.99123862  0.89130653    -0.72100
O3513       O  0.73931473  0.51909603  0.89325208    -0.72100
O3514       O  0.73802196  0.51296636  0.94140963    -0.72100
O3515       O  0.77715973  0.55059388  0.91842633    -0.72000
O3516       O  0.70084993  0.98134097  0.91625593    -0.72200
V3517       V  0.75909120  0.98935055  0.91570711     1.35200
V3518       V  0.73928920  0.51550936  0.91730651     1.35200
C3519       C  0.69832851  0.95592083  0.91550383     0.77200
C3520       C  0.80031586  0.54849352  0.91764147     0.77300
C3521       C  0.74853901  0.99890282  0.94897659     0.77100
C3522       C  0.74915593  0.00612059  0.88399507     0.77100
O3523       O  0.72829194  0.76615493  0.93977862    -0.72000
O3524       O  0.73581916  0.76417417  0.89146967    -0.72300
O3525       O  0.69814344  0.72738602  0.91510431    -0.72100
O3526       O  0.76616844  0.80369858  0.91623758    -0.72100
O3527       O  0.79417796  0.78416588  0.91913348    -0.72100
O3528       O  0.72564460  0.70732802  0.91830034    -0.72100
O3529       O  0.76335886  0.74418255  0.89471083    -0.72000
O3530       O  0.75646457  0.74681592  0.94277759    -0.72200
V3531       V  0.73273610  0.76505391  0.91568369     1.35200
V3532       V  0.75943488  0.74607221  0.91868259     1.35200
C3533       C  0.74055540  0.75605804  0.94949567     0.77200
C3534       C  0.75052663  0.75338836  0.88485150     0.77300
C3535       C  0.70013390  0.70436328  0.91670871     0.77100
C3536       C  0.79179794  0.80708645  0.91778682     0.77100
O3537       O  0.96929552  0.95793979  0.55945917    -0.72000
O3538       O  0.97246312  0.95654749  0.60803926    -0.72300
O3539       O  0.93436438  0.95731135  0.58494363    -0.72100
O3540       O  0.50701004  0.95709102  0.58254741    -0.72100
O3541       O  0.53122492  0.50505398  0.58402170    -0.72100
O3542       O  0.95830587  0.50532448  0.58437831    -0.72100
O3543       O  0.49465210  0.50455550  0.60858539    -0.72000
O3544       O  0.49482468  0.50592538  0.55984516    -0.72200
V3545       V  0.97120566  0.95816816  0.58375908     1.35200
V3546       V  0.49430545  0.50430431  0.58420788     1.35200
C3547       C  0.48187825  0.98212493  0.55131179     0.77200
C3548       C  0.48401430  0.98031173  0.61661206     0.77300
C3549       C  0.93383095  0.98130144  0.58481311     0.77100
C3550       C  0.53155374  0.98098019  0.58306075     0.77100
O3551       O  0.96056290  0.71421590  0.58170491    -0.72000
O3552       O  0.53765415  0.72334112  0.58236244    -0.72300
O3553       O  0.99727584  0.71494864  0.60627794    -0.72100
O3554       O  0.00107887  0.72264853  0.55775535    -0.72100
O3555       O  0.52143109  0.77030262  0.56039262    -0.72100
O3556       O  0.51517807  0.76237112  0.60863428    -0.72100
O3557       O  0.55676419  0.77077776  0.58553096    -0.72000
O3558       O  0.98014559  0.76190384  0.58350471    -0.72200
V3559       V  0.99950264  0.71967083  0.58206119     1.35200
V3560       V  0.51801509  0.76537706  0.58447079     1.35200
C3561       C  0.95726062  0.73664021  0.58236518     0.77200
C3562       C  0.56036713  0.74862321  0.58423054     0.77300
C3563       C  0.00535621  0.73742700  0.61571829     0.77100
C3564       C  0.01197709  0.74786436  0.55079370     0.77100
O3565       O  0.69634097  0.98141706  0.58362324    -0.72000
O3566       O  0.76963989  0.98189576  0.58402136    -0.72300
O3567       O  0.73455237  0.98518440  0.60800418    -0.72100
O3568       O  0.73143505  0.97792019  0.55964211    -0.72100
O3569       O  0.75548834  0.52577430  0.55726410    -0.72100
O3570       O  0.75747705  0.53306633  0.60577744    -0.72100
O3571       O  0.79327107  0.52979404  0.58205579    -0.72000
O3572       O  0.72016500  0.52922893  0.58101670    -0.72200
V3573       V  0.73344830  0.98254017  0.58378032     1.35200
V3574       V  0.75618485  0.52853263  0.58156084     1.35200
C3575       C  0.69576746  0.00531458  0.58224739     0.77200
C3576       C  0.79401805  0.00597695  0.58318512     0.77300
C3577       C  0.74627925  0.01027785  0.61516294     0.77100
C3578       C  0.74287861  0.00056590  0.55016898     0.77100
O3579       O  0.77143237  0.77289260  0.56096392    -0.72000
O3580       O  0.77058620  0.76660392  0.60931946    -0.72300
O3581       O  0.80893914  0.77293160  0.58450374    -0.72100
O3582       O  0.73284734  0.76620248  0.58576374    -0.72100
O3583       O  0.71254603  0.71838341  0.58468186    -0.72100
O3584       O  0.78821675  0.72533453  0.58130194    -0.72100
O3585       O  0.75198024  0.71905350  0.60723893    -0.72000
O3586       O  0.74917438  0.72505398  0.55871742    -0.72200
V3587       V  0.77055845  0.76873933  0.58509986     1.35200
V3588       V  0.75083525  0.72287421  0.58302296     1.35200
C3589       C  0.76034463  0.75013017  0.55154265     0.77200
C3590       C  0.76157081  0.74190026  0.61655680     0.77300
C3591       C  0.81151848  0.75021985  0.58258134     0.77100
C3592       C  0.70964606  0.74100207  0.58554696     0.77100
O3593       O  0.94911281  0.97283370  0.75237721    -0.72000
O3594       O  0.51783776  0.54895674  0.75127050    -0.72300
O3595       O  0.98095675  0.51145430  0.72756581    -0.72100
O3596       O  0.98614433  0.51042655  0.77602025    -0.72100
O3597       O  0.51462646  0.99129469  0.77395749    -0.72100
O3598       O  0.50693572  0.98954599  0.72549387    -0.72100
O3599       O  0.54523437  0.52872301  0.74845394    -0.72000
O3600       O  0.97660912  0.95249448  0.75115717    -0.72200
V3601       V  0.98403892  0.51050650  0.75176420     1.35200
V3602       V  0.51036178  0.99094527  0.74977958     1.35200
C3603       C  0.95112059  0.94965652  0.75219647     0.77200
C3604       C  0.54327804  0.55188916  0.74962681     0.77300
C3605       C  0.99281433  0.00041411  0.71825375     0.77100
C3606       C  0.00131401  0.00076137  0.78328171     0.77100
O3607       O  0.94788531  0.73042683  0.74804063    -0.72000
O3608       O  0.52440821  0.79955219  0.75029733    -0.72300
O3609       O  0.98843237  0.76594387  0.72503067    -0.72100
O3610       O  0.98360821  0.76454228  0.77326707    -0.72100
O3611       O  0.50513212  0.73814894  0.77454408    -0.72100
O3612       O  0.50711523  0.73694647  0.72571392    -0.72100
O3613       O  0.54423860  0.77156718  0.75045323    -0.72000
O3614       O  0.96839270  0.70314520  0.74984114    -0.72200
V3615       V  0.98645419  0.76456344  0.74917090     1.35200
V3616       V  0.50583279  0.73798935  0.75012044     1.35200
C3617       C  0.94518816  0.70491286  0.74870669     0.77200
C3618       C  0.54745035  0.79721169  0.75065138     0.77300
C3619       C  0.49833678  0.75165402  0.71707719     0.77100
C3620       C  0.49378077  0.75151058  0.78220469     0.77100
O3621       O  0.70197300  0.97828732  0.75058869    -0.72000
O3622       O  0.77806904  0.54626910  0.74910683    -0.72300
O3623       O  0.73852122  0.51178721  0.72538905    -0.72100
O3624       O  0.74213024  0.51255155  0.77426983    -0.72100
O3625       O  0.76308967  0.98562941  0.77308911    -0.72100
O3626       O  0.75696473  0.98256681  0.72491800    -0.72100
O3627       O  0.79825641  0.51866770  0.74759138    -0.72000
O3628       O  0.72148752  0.95002128  0.75048664    -0.72200
V3629       V  0.74052552  0.51166041  0.74982316     1.35200
V3630       V  0.75956116  0.98476722  0.74902818     1.35200
C3631       C  0.69856074  0.95256423  0.75084688     0.77200
C3632       C  0.80115544  0.54427457  0.74810778     0.77300
C3633       C  0.74692522  0.99663075  0.71686905     0.77100
C3634       C  0.75379468  0.99951609  0.78196738     0.77100
O3635       O  0.79519127  0.77922076  0.75211422    -0.72000
O3636       O  0.72657104  0.70297978  0.75084089    -0.72300
O3637       O  0.76356926  0.74076718  0.72708630    -0.72100
O3638       O  0.75815522  0.74160107  0.77574172    -0.72100
O3639       O  0.72940152  0.76038355  0.77339804    -0.72100
O3640       O  0.73752268  0.76264905  0.72528699    -0.72100
O3641       O  0.69908703  0.72309014  0.74789459    -0.72000
O3642       O  0.76753775  0.79938443  0.75089350    -0.72200
V3643       V  0.76032730  0.74148113  0.75139562     1.35200
V3644       V  0.73387401  0.76089742  0.74938923     1.35200
C3645       C  0.79308426  0.80234193  0.75187273     0.77200
C3646       C  0.70109029  0.69997255  0.74919403     0.77300
C3647       C  0.75209496  0.75243424  0.71794827     0.77100
C3648       C  0.74280712  0.75124072  0.78284112     0.77100
C3649       C  0.83055592  0.57145670  0.74777743    -0.05500
C3650       C  0.85667827  0.56991422  0.74798203    -0.05400
C3651       C  0.88432521  0.59579515  0.74812158    -0.23600
C3652       C  0.88629545  0.62363263  0.74803489     0.18600
C3653       C  0.86017228  0.62542687  0.74773522     0.15800
C3654       C  0.83255183  0.59939265  0.74761749    -0.18600
C3655       C  0.86210826  0.65323705  0.74761996    -0.20400
C3656       C  0.88972179  0.67911883  0.74785035    -0.13000
C3657       C  0.91586451  0.67762518  0.74823543     0.03700
C3658       C  0.91391861  0.64969880  0.74829365    -0.25100
H3659       H  0.85573721  0.54870823  0.74815881     0.08700
H3660       H  0.90417109  0.59403767  0.74835301     0.12300
H3661       H  0.81258120  0.60094714  0.74746105     0.12300
H3662       H  0.84225098  0.65497524  0.74738564     0.12000
H3663       H  0.89061294  0.70030291  0.74780446     0.12600
H3664       H  0.93390929  0.64818624  0.74856386     0.14500
C3665       C  0.66838628  0.92638383  0.75137513    -0.05500
C3666       C  0.64348861  0.93016913  0.75129447    -0.05400
C3667       C  0.61486523  0.90574469  0.75135096    -0.23600
C3668       C  0.61051907  0.87699588  0.75148427     0.18600
C3669       C  0.63536488  0.87290072  0.75173165     0.15800
C3670       C  0.66409994  0.89757097  0.75168737    -0.18600
C3671       C  0.63105004  0.84417388  0.75189008    -0.20400
C3672       C  0.60246098  0.81974575  0.75163733    -0.13000
C3673       C  0.57754892  0.82348990  0.75122842     0.03700
C3674       C  0.58178317  0.85229662  0.75125176    -0.25100
H3675       H  0.64610727  0.95210631  0.75106964     0.08700
H3676       H  0.59613266  0.90935999  0.75118841     0.12300
H3677       H  0.68306761  0.89431639  0.75177078     0.12300
H3678       H  0.64979119  0.84057446  0.75211708     0.12000
H3679       H  0.59988831  0.79782403  0.75168084     0.12600
H3680       H  0.56279655  0.85551457  0.75097690     0.14500
C3681       C  0.92436102  0.92002388  0.75313866    -0.05500
C3682       C  0.92693039  0.89458146  0.75488150    -0.05400
C3683       C  0.90171239  0.86650379  0.75543556    -0.23600
C3684       C  0.87346944  0.86335312  0.75414793     0.18600
C3685       C  0.87061924  0.88880883  0.75258832     0.15800
C3686       C  0.89603537  0.91694443  0.75217578    -0.18600
C3687       C  0.84239651  0.88567607  0.75125709    -0.20400
C3688       C  0.81721860  0.85756497  0.75121852    -0.13000
C3689       C  0.81978491  0.83206562  0.75253538     0.03700
C3690       C  0.84806302  0.83517898  0.75416275    -0.25100
H3691       H  0.94848508  0.89636820  0.75577216     0.08700
H3692       H  0.90431626  0.84724286  0.75670182     0.12300
H3693       H  0.89374060  0.93638958  0.75085569     0.12300
H3694       H  0.83979899  0.90495257  0.75007761     0.12000
H3695       H  0.79570996  0.85579145  0.74998096     0.12600
H3696       H  0.85035755  0.81570274  0.75524405     0.14500
C3697       C  0.56997789  0.58167162  0.74920151    -0.05500
C3698       C  0.56718209  0.60711286  0.74868093    -0.05400
C3699       C  0.59225583  0.63531442  0.74840953    -0.23600
C3700       C  0.62062491  0.63862883  0.74873892     0.18600
C3701       C  0.62371669  0.61322088  0.74934742     0.15800
C3702       C  0.59841842  0.58494277  0.74951098    -0.18600
C3703       C  0.65207531  0.61653310  0.74983971    -0.20400
C3704       C  0.67715074  0.64473085  0.74971448    -0.13000
C3705       C  0.67437700  0.67017465  0.74902932     0.03700
C3706       C  0.64593402  0.66690480  0.74853413    -0.25100
H3707       H  0.54554563  0.60522843  0.74844060     0.08700
H3708       H  0.58944659  0.65453052  0.74797637     0.12300
H3709       H  0.60089681  0.56552384  0.75000532     0.12300
H3710       H  0.65487533  0.59731638  0.75036078     0.12000
H3711       H  0.69877363  0.64660353  0.75016431     0.12600
H3712       H  0.64345546  0.68632708  0.74810757     0.14500
C3713       C  0.76191077  0.74001968  0.63544050    -0.05500
C3714       C  0.76154610  0.71584427  0.64360615    -0.05400
C3715       C  0.76119962  0.71403997  0.66150094    -0.23600
C3716       C  0.76049486  0.73604202  0.67151246     0.18600
C3717       C  0.76086707  0.76040877  0.66334035     0.15800
C3718       C  0.76210345  0.76248177  0.64545021    -0.18600
C3719       C  0.75920335  0.78198629  0.67315273    -0.20400
C3720       C  0.75641292  0.77913007  0.69087619    -0.13000
C3721       C  0.75598445  0.75507225  0.69920189     0.03700
C3722       C  0.75863567  0.73380748  0.68948156    -0.25100
H3723       H  0.76161481  0.69838148  0.63614160     0.08700
H3724       H  0.76090645  0.69517566  0.66748965     0.12300
H3725       H  0.76221649  0.78115317  0.63929110     0.12300
H3726       H  0.75945473  0.80078335  0.66709248     0.12000
H3727       H  0.75469182  0.79590301  0.69813827     0.12600
H3728       H  0.75816841  0.71510643  0.69581950     0.14500
C3729       C  0.74670712  0.01264984  0.63402521    -0.05500
C3730       C  0.74943875  0.53799906  0.64207968    -0.05400
C3731       C  0.74900391  0.53970205  0.65995203    -0.23600
C3732       C  0.74639962  0.51630205  0.67006953     0.18600
C3733       C  0.74418652  0.99097241  0.66201891     0.15800
C3734       C  0.74398087  0.98916996  0.64411914    -0.18600
C3735       C  0.74249421  0.96790969  0.67198883    -0.20400
C3736       C  0.74325590  0.96996035  0.68978027    -0.13000
C3737       C  0.74513852  0.99482561  0.69799584     0.03700
C3738       C  0.74639236  0.51788502  0.68805685    -0.25100
H3739       H  0.75145279  0.55632023  0.63454023     0.08700
H3740       H  0.75087038  0.55936632  0.66585195     0.12300
H3741       H  0.74213404  0.96962548  0.63803483     0.12300
H3742       H  0.74090395  0.94840255  0.66602663     0.12000
H3743       H  0.74221963  0.95190951  0.69716721     0.12600
H3744       H  0.74819347  0.53729329  0.69428593     0.14500
C3745       C  0.92757959  0.73376555  0.58185182    -0.05500
C3746       C  0.90180430  0.70584241  0.58100452    -0.05400
C3747       C  0.87386586  0.70345733  0.58070723    -0.23600
C3748       C  0.87126851  0.72895895  0.58126878     0.18600
C3749       C  0.89707437  0.75710006  0.58202993     0.15800
C3750       C  0.92495405  0.75930206  0.58229377    -0.18600
C3751       C  0.89461373  0.78263428  0.58263364    -0.20400
C3752       C  0.86679503  0.78036405  0.58267061    -0.13000
C3753       C  0.84093513  0.75252711  0.58204308     0.03700
C3754       C  0.84336415  0.72685059  0.58122423    -0.25100
H3755       H  0.90323286  0.68584312  0.58063483     0.08700
H3756       H  0.85430832  0.68168513  0.58011653     0.12300
H3757       H  0.94463614  0.78099371  0.58292298     0.12300
H3758       H  0.91421605  0.80437695  0.58319458     0.12000
H3759       H  0.86553416  0.80044277  0.58327198     0.12600
H3760       H  0.82358079  0.70522010  0.58074735     0.14500
C3761       C  0.59037635  0.75225224  0.58490121    -0.05500
C3762       C  0.61556417  0.78066933  0.58539461    -0.05400
C3763       C  0.64396144  0.78422993  0.58588538    -0.23600
C3764       C  0.64771365  0.75942884  0.58594152     0.18600
C3765       C  0.62252303  0.73076000  0.58561233     0.15800
C3766       C  0.59408481  0.72735692  0.58507024    -0.18600
C3767       C  0.62618300  0.70593458  0.58572972    -0.20400
C3768       C  0.65451187  0.70941741  0.58593248    -0.13000
C3769       C  0.67978562  0.73778858  0.58603231     0.03700
C3770       C  0.67618297  0.76277733  0.58617677    -0.25100
H3771       H  0.61333610  0.80022256  0.58529748     0.08700
H3772       H  0.66298173  0.80638453  0.58615541     0.12300
H3773       H  0.57486342  0.70531456  0.58477243     0.12300
H3774       H  0.60712987  0.68379543  0.58553763     0.12000
H3775       H  0.65661014  0.68978932  0.58586468     0.12600
H3776       H  0.69546370  0.78478322  0.58627545     0.14500
C3777       C  0.00348159  0.73495210  0.63456100    -0.05500
C3778       C  0.50338986  0.71112789  0.64298881    -0.05400
C3779       C  0.50285667  0.70970464  0.66088676    -0.23600
C3780       C  0.50188737  0.73183067  0.67062367     0.18600
C3781       C  0.00119921  0.75543813  0.66217350     0.15800
C3782       C  0.00229240  0.75698428  0.64427423    -0.18600
C3783       C  0.99941972  0.77717705  0.67174594    -0.20400
C3784       C  0.99841547  0.77566719  0.68955042    -0.13000
C3785       C  0.49960173  0.75264498  0.69817704     0.03700
C3786       C  0.50144639  0.73075998  0.68861876    -0.25100
H3787       H  0.50432435  0.69391450  0.63573980     0.08700
H3788       H  0.50321940  0.69133558  0.66710239     0.12300
H3789       H  0.00200109  0.77527805  0.63788333     0.12300
H3790       H  0.99872310  0.79532786  0.66546270     0.12000
H3791       H  0.99699806  0.79279041  0.69661034     0.12600
H3792       H  0.50205339  0.71274641  0.69514344     0.14500
C3793       C  0.90527003  0.98113424  0.58499607    -0.05500
C3794       C  0.87834860  0.95416317  0.58553235    -0.05400
C3795       C  0.85129957  0.95366774  0.58537113    -0.23600
C3796       C  0.85056578  0.98014165  0.58464811     0.18600
C3797       C  0.87744137  0.50742727  0.58416944     0.15800
C3798       C  0.90458996  0.50776714  0.58437476    -0.18600
C3799       C  0.87667281  0.53389229  0.58341406    -0.20400
C3800       C  0.84958575  0.53335073  0.58308781    -0.13000
C3801       C  0.82267965  0.00634521  0.58353924     0.03700
C3802       C  0.82341691  0.97976593  0.58434703    -0.25100
H3803       H  0.87816126  0.93332779  0.58601245     0.08700
H3804       H  0.83093092  0.93253399  0.58575085     0.12300
H3805       H  0.92514030  0.52874492  0.58394179     0.12300
H3806       H  0.89703147  0.55503592  0.58304114     0.12000
H3807       H  0.84972334  0.55415450  0.58248659     0.12600
H3808       H  0.80288524  0.95876366  0.58470001     0.14500
C3809       C  0.55980656  0.98060457  0.58260972    -0.05500
C3810       C  0.55960945  0.95353938  0.58220569    -0.05400
C3811       C  0.58610231  0.95292276  0.58198815    -0.23600
C3812       C  0.61336668  0.97936874  0.58213785     0.18600
C3813       C  0.61386490  0.50671719  0.58241121     0.15800
C3814       C  0.58714440  0.50717044  0.58266720    -0.18600
C3815       C  0.64110345  0.53317198  0.58246661    -0.20400
C3816       C  0.66759434  0.53258367  0.58231894    -0.13000
C3817       C  0.66743741  0.00553806  0.58217324     0.03700
C3818       C  0.64011566  0.97893728  0.58206060    -0.25100
H3819       H  0.53890502  0.93273794  0.58213379     0.08700
H3820       H  0.58525099  0.93173979  0.58174243     0.12300
H3821       H  0.58766595  0.52820417  0.58293601     0.12300
H3822       H  0.64193786  0.55434839  0.58265622     0.12000
H3823       H  0.68827917  0.55340433  0.58242516     0.12600
H3824       H  0.63963757  0.95792209  0.58190139     0.14500
C3825       C  0.99034947  0.00042495  0.69938986    -0.05500
C3826       C  0.98652705  0.02225343  0.69120502    -0.05400
C3827       C  0.98494726  0.02295124  0.67336577    -0.23600
C3828       C  0.98647635  0.00140247  0.66338382     0.18600
C3829       C  0.48942279  0.47879698  0.67151400     0.15800
C3830       C  0.49180964  0.47871854  0.68943695    -0.18600
C3831       C  0.48981073  0.45660255  0.66156741    -0.20400
C3832       C  0.48747659  0.45688303  0.64375012    -0.13000
C3833       C  0.48541118  0.97971113  0.63551119     0.03700
C3834       C  0.98499466  0.00199841  0.64542984    -0.25100
H3835       H  0.98532313  0.03917208  0.69861683     0.08700
H3836       H  0.98245335  0.04030512  0.66738232     0.12300
H3837       H  0.49435344  0.46155085  0.69565274     0.12300
H3838       H  0.49184683  0.43898723  0.66756457     0.12000
H3839       H  0.48790240  0.43953290  0.63635346     0.12600
H3840       H  0.98307289  0.01951221  0.63918764     0.14500
C3841       C  0.74081599  0.75252344  0.80166442    -0.05500
C3842       C  0.72439133  0.76446473  0.80893716    -0.05400
C3843       C  0.72313760  0.76702958  0.82662341    -0.23600
C3844       C  0.73826407  0.75768407  0.83742049     0.18600
C3845       C  0.75464023  0.74535242  0.83032199     0.15800
C3846       C  0.75580263  0.74281580  0.81247782    -0.18600
C3847       C  0.76967611  0.73595190  0.84121189    -0.20400
C3848       C  0.76851348  0.73878151  0.85893550    -0.13000
C3849       C  0.75231943  0.75108675  0.86608921     0.03700
C3850       C  0.73725201  0.76050815  0.85520052    -0.25100
H3851       H  0.71265037  0.77213775  0.80092699     0.08700
H3852       H  0.71044166  0.77647861  0.83185045     0.12300
H3853       H  0.76854386  0.73357083  0.80703731     0.12300
H3854       H  0.78231612  0.72640780  0.83603296     0.12000
H3855       H  0.78023946  0.73123170  0.86705151     0.12600
H3856       H  0.72460113  0.76992938  0.86054611     0.14500
C3857       C  0.74852655  0.00830385  0.86513229    -0.05500
C3858       C  0.73317461  0.52111904  0.85747287    -0.05400
C3859       C  0.73164586  0.52262884  0.83969128    -0.23600
C3860       C  0.74550221  0.51141439  0.82919017     0.18600
C3861       C  0.76144206  0.99895998  0.83675409     0.15800
C3862       C  0.76284775  0.99746899  0.85464514    -0.18600
C3863       C  0.77540197  0.98784220  0.82628888    -0.20400
C3864       C  0.77303704  0.98839047  0.80853074    -0.13000
C3865       C  0.75678325  0.00019307  0.80083039     0.03700
C3866       C  0.74336341  0.51207053  0.81127958    -0.25100
H3867       H  0.72196642  0.52969370  0.86524642     0.08700
H3868       H  0.71939084  0.53232388  0.83416148     0.12300
H3869       H  0.77491462  0.98772364  0.86038109     0.12300
H3870       H  0.78787648  0.97839701  0.83183447     0.12000
H3871       H  0.78386440  0.97935040  0.80080218     0.12600
H3872       H  0.73087710  0.52133481  0.80551601     0.14500
C3873       C  0.92085457  0.67775650  0.91771513    -0.05500
C3874       C  0.89592166  0.68144568  0.91696937    -0.05400
C3875       C  0.86733967  0.65697839  0.91704209    -0.23600
C3876       C  0.86309715  0.62829999  0.91782454     0.18600
C3877       C  0.88799141  0.62431928  0.91862371     0.15800
C3878       C  0.91667131  0.64902759  0.91860520    -0.18600
C3879       C  0.88379166  0.59566274  0.91931970    -0.20400
C3880       C  0.85525790  0.57117996  0.91908752    -0.13000
C3881       C  0.83031119  0.57482154  0.91823221     0.03700
C3882       C  0.83441634  0.60355131  0.91770156    -0.25100
H3883       H  0.89848114  0.70333713  0.91628585     0.08700
H3884       H  0.84856946  0.66049879  0.91641399     0.12300
H3885       H  0.93567685  0.64586547  0.91917339     0.12300
H3886       H  0.90257330  0.59216092  0.91995061     0.12000
H3887       H  0.85274898  0.54929464  0.91955987     0.12600
H3888       H  0.81538406  0.60665604  0.91700392     0.14500
C3889       C  0.58306437  0.82280789  0.91558435    -0.05500
C3890       C  0.60906799  0.82103041  0.91526873    -0.05400
C3891       C  0.63682839  0.84676447  0.91501392    -0.23600
C3892       C  0.63904991  0.87470663  0.91510039     0.18600
C3893       C  0.61303999  0.87672431  0.91538691     0.15800
C3894       C  0.58529706  0.85083137  0.91560416    -0.18600
C3895       C  0.61520140  0.90461900  0.91552136    -0.20400
C3896       C  0.64291058  0.93035721  0.91546411    -0.13000
C3897       C  0.66895802  0.92866699  0.91523279     0.03700
C3898       C  0.66680507  0.90065749  0.91499182    -0.25100
H3899       H  0.60795440  0.79974129  0.91523596     0.08700
H3900       H  0.65656070  0.84481009  0.91479610     0.12300
H3901       H  0.56542845  0.85256054  0.91585285     0.12300
H3902       H  0.59544837  0.90653828  0.91573946     0.12000
H3903       H  0.64394523  0.95160721  0.91565790     0.12600
H3904       H  0.68671571  0.89900103  0.91483376     0.14500
C3905       C  0.00360079  0.74574778  0.86525601    -0.05500
C3906       C  0.51894038  0.73312456  0.85736950    -0.05400
C3907       C  0.52009364  0.73167475  0.83957227    -0.23600
C3908       C  0.50577708  0.74266515  0.82928793     0.18600
C3909       C  0.99027542  0.75540189  0.83707041     0.15800
C3910       C  0.98937209  0.75696668  0.85498212    -0.18600
C3911       C  0.97591739  0.76635029  0.82679736    -0.20400
C3912       C  0.97700294  0.76484468  0.80900561    -0.13000
C3913       C  0.99241629  0.75231117  0.80110036     0.03700
C3914       C  0.50672547  0.74116064  0.81136930    -0.25100
H3915       H  0.53023848  0.72445068  0.86498087     0.08700
H3916       H  0.53214505  0.72190577  0.83386036     0.12300
H3917       H  0.97744840  0.76671304  0.86090148     0.12300
H3918       H  0.96388605  0.77613692  0.83251466     0.12000
H3919       H  0.96572611  0.77356384  0.80141361     0.12600
H3920       H  0.51874791  0.73152520  0.80544564     0.14500
C3921       C  0.92161374  0.92719448  0.91716258    -0.05500
C3922       C  0.92498256  0.90210219  0.91628451    -0.05400
C3923       C  0.90030815  0.87365564  0.91621967    -0.23600
C3924       C  0.87172629  0.86968955  0.91706649     0.18600
C3925       C  0.86800328  0.89472483  0.91785925     0.15800
C3926       C  0.89293898  0.92330152  0.91788819    -0.18600
C3927       C  0.83938853  0.89072089  0.91863548    -0.20400
C3928       C  0.81472048  0.86223136  0.91862362    -0.13000
C3929       C  0.81815217  0.83715844  0.91791604     0.03700
C3930       C  0.84683144  0.84111259  0.91714445    -0.25100
H3931       H  0.94678765  0.90443460  0.91565113     0.08700
H3932       H  0.90360259  0.85474862  0.91555096     0.12300
H3933       H  0.89000757  0.94244080  0.91855600     0.12300
H3934       H  0.83606892  0.90961705  0.91924459     0.12000
H3935       H  0.79288657  0.85983494  0.91923043     0.12600
H3936       H  0.84979906  0.82199335  0.91650529     0.14500
C3937       C  0.56747794  0.58890689  0.91853701    -0.05500
C3938       C  0.56589507  0.61468593  0.92133143    -0.05400
C3939       C  0.59164861  0.64239893  0.92170978    -0.23600
C3940       C  0.61940622  0.64479484  0.91925488     0.18600
C3941       C  0.62128628  0.61900197  0.91659891     0.15800
C3942       C  0.59535919  0.59128365  0.91626023    -0.18600
C3943       C  0.64906794  0.62137832  0.91427441    -0.20400
C3944       C  0.67479400  0.64911620  0.91446534    -0.13000
C3945       C  0.67312088  0.67492046  0.91684087     0.03700
C3946       C  0.64529349  0.67254821  0.91931375    -0.25100
H3947       H  0.54473511  0.61343067  0.92323443     0.08700
H3948       H  0.58984435  0.66196613  0.92384966     0.12300
H3949       H  0.59692931  0.57157173  0.91414105     0.12300
H3950       H  0.65089184  0.60179609  0.91225451     0.12000
H3951       H  0.69597092  0.65041463  0.91254253     0.12600
H3952       H  0.64375719  0.69230639  0.92132582     0.14500
C3953       C  0.49270115  0.00994624  0.86617710    -0.05500
C3954       C  0.97768951  0.02258213  0.85793976    -0.05400
C3955       C  0.97655547  0.02333696  0.84013601    -0.23600
C3956       C  0.99042766  0.01148804  0.83017202     0.18600
C3957       C  0.50562930  0.49871142  0.83823869     0.15800
C3958       C  0.50665763  0.49798746  0.85620255    -0.18600
C3959       C  0.51950281  0.48690813  0.82816871    -0.20400
C3960       C  0.51829410  0.48774200  0.81030559    -0.13000
C3961       C  0.00313390  0.00033132  0.80218401     0.03700
C3962       C  0.98926890  0.01219575  0.81226784    -0.25100
H3963       H  0.96672756  0.03193144  0.86527603     0.08700
H3964       H  0.96480172  0.03320630  0.83415866     0.12300
H3965       H  0.51828777  0.48815598  0.86238229     0.12300
H3966       H  0.53125734  0.47700356  0.83409988     0.12000
H3967       H  0.52910698  0.47837891  0.80284342     0.12600
H3968       H  0.97749983  0.02197910  0.80619621     0.14500
C3969       C  0.73573910  0.75396167  0.96818113    -0.05500
C3970       C  0.71344039  0.75807513  0.97550107    -0.05400
C3971       C  0.70781624  0.75419067  0.99308813    -0.23600
C3972       C  0.72462244  0.74644283  0.00365844     0.18600
C3973       C  0.74729376  0.74258620  0.99637100     0.15800
C3974       C  0.75252913  0.74615384  0.97874380    -0.18600
C3975       C  0.76464968  0.73552981  0.00684611    -0.20400
C3976       C  0.76017431  0.73310433  0.02446479    -0.13000
C3977       C  0.73783856  0.73698141  0.03188077     0.03700
C3978       C  0.71965487  0.74307616  0.02140512    -0.25100
H3979       H  0.70002280  0.76383015  0.96758662     0.08700
H3980       H  0.69041303  0.75733708  0.99842032     0.12300
H3981       H  0.76979490  0.74291210  0.97326044     0.12300
H3982       H  0.78207207  0.73246213  0.00145729     0.12000
H3983       H  0.77431850  0.72829990  0.03237371     0.12600
H3984       H  0.70259931  0.74639314  0.02712504     0.14500
C3985       C  0.75519366  0.91958815  0.08345775    -0.05500
C3986       C  0.78241754  0.92009626  0.08388503    -0.05400
C3987       C  0.78339710  0.89383052  0.08379247    -0.23600
C3988       C  0.75715934  0.86644340  0.08334241     0.18600
C3989       C  0.72961900  0.86557134  0.08295597     0.15800
C3990       C  0.72879136  0.89212025  0.08297368    -0.18600
C3991       C  0.70339065  0.83813837  0.08257534    -0.20400
C3992       C  0.70442169  0.81186853  0.08260720    -0.13000
C3993       C  0.73169331  0.81244935  0.08298971     0.03700
C3994       C  0.75803455  0.83994428  0.08331609    -0.25100
H3995       H  0.80310923  0.94090207  0.08421447     0.08700
H3996       H  0.80470954  0.89495794  0.08408960     0.12300
H3997       H  0.70765071  0.89137788  0.08265874     0.12300
H3998       H  0.68206349  0.83697986  0.08228008     0.12000
H3999       H  0.68376504  0.79102512  0.08233189     0.12600
H4000       H  0.77920790  0.84075539  0.08361173     0.14500
C4001       C  0.73244176  0.65815389  0.08267931    -0.05500
C4002       C  0.70533234  0.63145713  0.08143439    -0.05400
C4003       C  0.70451142  0.60428825  0.08103214    -0.23600
C4004       C  0.73079345  0.60322542  0.08186036     0.18600
C4005       C  0.75820208  0.62988162  0.08313612     0.15800
C4006       C  0.75886839  0.65715626  0.08353494    -0.18600
C4007       C  0.78447163  0.62877754  0.08400119    -0.20400
C4008       C  0.78361231  0.60156697  0.08365133    -0.13000
C4009       C  0.75648053  0.57489360  0.08238991     0.03700
C4010       C  0.73010055  0.57595441  0.08146832    -0.25100
H4011       H  0.68463450  0.63153433  0.08075136     0.08700
H4012       H  0.68329412  0.58409908  0.08006591     0.12300
H4013       H  0.77992636  0.67754504  0.08448684     0.12300
H4014       H  0.80569462  0.64895528  0.08498563     0.12000
H4015       H  0.80427354  0.60142766  0.08439644     0.12600
H4016       H  0.70901823  0.55558615  0.08054138     0.14500
C4017       C  0.74668891  0.99647437  0.96773772    -0.05500
C4018       C  0.72093766  0.99248013  0.97582223    -0.05400
C4019       C  0.71878971  0.99154286  0.99358366    -0.23600
C4020       C  0.74269103  0.99534013  0.00360345     0.18600
C4021       C  0.76893131  0.49969036  0.99566845     0.15800
C4022       C  0.77058968  0.49968482  0.97768694    -0.18600
C4023       C  0.79308136  0.50444928  0.00590134    -0.20400
C4024       C  0.79115976  0.50480561  0.02378172    -0.13000
C4025       C  0.76490197  0.99991427  0.03168215     0.03700
C4026       C  0.74077355  0.99516640  0.02145300    -0.25100
H4027       H  0.70233925  0.98998412  0.96832764     0.08700
H4028       H  0.69858287  0.98828821  0.99948559     0.12300
H4029       H  0.79066394  0.50319912  0.97146950     0.12300
H4030       H  0.81345767  0.50802327  0.00008703     0.12000
H4031       H  0.81000951  0.50844160  0.03142890     0.12600
H4032       H  0.72048844  0.99166060  0.02739502     0.14500
C4033       C  0.00494163  0.75439720  0.96799943    -0.05500
C4034       C  0.52958712  0.75590141  0.97623482    -0.05400
C4035       C  0.53153811  0.75670598  0.99401857    -0.23600
C4036       C  0.50848426  0.75525210  0.00390841     0.18600
C4037       C  0.98340231  0.75351055  0.99581169     0.15800
C4038       C  0.98202805  0.75366240  0.97783139    -0.18600
C4039       C  0.96000444  0.75110867  0.00587688    -0.20400
C4040       C  0.96143630  0.75033039  0.02375788    -0.13000
C4041       C  0.98652063  0.75252315  0.03183117     0.03700
C4042       C  0.51001675  0.75513210  0.02178027    -0.25100
H4043       H  0.54749633  0.75659306  0.96885445     0.08700
H4044       H  0.55087474  0.75799652  0.00003747     0.12300
H4045       H  0.96282085  0.75218363  0.97151832     0.12300
H4046       H  0.94054541  0.74963466  0.99992696     0.12000
H4047       H  0.94318369  0.74853118  0.03128023     0.12600
H4048       H  0.52941251  0.75665282  0.02788213     0.14500
C4049       C  0.51654364  0.93866719  0.08336660    -0.05500
C4050       C  0.54389267  0.93945522  0.08269895    -0.05400
C4051       C  0.54511376  0.91333621  0.08241412    -0.23600
C4052       C  0.51900629  0.88586071  0.08287291     0.18600
C4053       C  0.99136103  0.88474972  0.08357448     0.15800
C4054       C  0.99028351  0.91113034  0.08375039    -0.18600
C4055       C  0.96526775  0.85725431  0.08415129    -0.20400
C4056       C  0.96653292  0.83114082  0.08408721    -0.13000
C4057       C  0.99390025  0.83196723  0.08336145     0.03700
C4058       C  0.52010760  0.85950601  0.08270537    -0.25100
H4059       H  0.56448032  0.96035773  0.08234378     0.08700
H4060       H  0.56649783  0.91464524  0.08187811     0.12300
H4061       H  0.96906908  0.91020850  0.08428871     0.12300
H4062       H  0.94387742  0.85592960  0.08469799     0.12000
H4063       H  0.94597504  0.81022092  0.08456431     0.12600
H4064       H  0.54133742  0.86045947  0.08217347     0.14500
C4065       C  0.99427619  0.67759784  0.08283995    -0.05500
C4066       C  0.96698355  0.65102514  0.08375096    -0.05400
C4067       C  0.96581990  0.62369021  0.08399531    -0.23600
C4068       C  0.99193761  0.62231024  0.08337340     0.18600
C4069       C  0.51953158  0.64883419  0.08245396     0.15800
C4070       C  0.52054121  0.67628654  0.08215790    -0.18600
C4071       C  0.54565022  0.64742899  0.08190483    -0.20400
C4072       C  0.54447358  0.62007636  0.08230867    -0.13000
C4073       C  0.51715981  0.59352628  0.08321031     0.03700
C4074       C  0.99090929  0.59486438  0.08369935    -0.25100
H4075       H  0.94639039  0.65132367  0.08429913     0.08700
H4076       H  0.94446594  0.60362281  0.08471419     0.12300
H4077       H  0.54173467  0.69656553  0.08148213     0.12300
H4078       H  0.56701173  0.66748765  0.08119262     0.12000
H4079       H  0.56505043  0.61973428  0.08186304     0.12600
H4080       H  0.96970395  0.57460239  0.08440460     0.14500
C4081       C  0.51950921  0.51630097  0.03232724    -0.05500
C4082       C  0.54475614  0.52031271  0.02356723    -0.05400
C4083       C  0.54472902  0.51865194  0.00568855    -0.23600
C4084       C  0.51960319  0.51340334  0.99629778     0.18600
C4085       C  0.99434139  0.00992298  0.00504422     0.15800
C4086       C  0.99436942  0.01109146  0.02293635    -0.18600
C4087       C  0.96947608  0.00551483  0.99576304    -0.20400
C4088       C  0.96967293  0.00481395  0.97793857    -0.13000
C4089       C  0.49445712  0.00784863  0.96908838     0.03700
C4090       C  0.51933555  0.51188713  0.97833894    -0.25100
H4091       H  0.56431563  0.52420952  0.03055814     0.08700
H4092       H  0.56435285  0.52152256  0.99921260     0.12300
H4093       H  0.97482308  0.00817184  0.02955734     0.12300
H4094       H  0.94997948  0.00290028  0.00228211     0.12000
H4095       H  0.95029075  0.00166682  0.97103511     0.12600
H4096       H  0.53867357  0.51462050  0.97156162     0.14500
C4097       C  0.75166580  0.73686148  0.46815208    -0.05500
C4098       C  0.73556105  0.70878774  0.47576845    -0.05400
C4099       C  0.73369993  0.70577847  0.49357073    -0.23600
C4100       C  0.74789720  0.73078900  0.50414699     0.18600
C4101       C  0.76391783  0.75916873  0.49665858     0.15800
C4102       C  0.76572333  0.76202894  0.47875050    -0.18600
C4103       C  0.77799531  0.78420018  0.50721878    -0.20400
C4104       C  0.77646362  0.78115985  0.52500918    -0.13000
C4105       C  0.76091794  0.75302619  0.53263870     0.03700
C4106       C  0.74652072  0.72788457  0.52206395    -0.25100
H4107       H  0.72446807  0.68904413  0.46794682     0.08700
H4108       H  0.72124922  0.68384388  0.49906557     0.12300
H4109       H  0.77817314  0.78384365  0.47308852     0.12300
H4110       H  0.79033766  0.80614695  0.50172264     0.12000
H4111       H  0.78777427  0.80091070  0.53281218     0.12600
H4112       H  0.73437199  0.70606649  0.52775115     0.14500
C4113       C  0.74484226  0.01370987  0.46700680    -0.05500
C4114       C  0.75434419  0.54134959  0.47479591    -0.05400
C4115       C  0.75585032  0.54422716  0.49257222    -0.23600
C4116       C  0.74788297  0.51951907  0.50295759     0.18600
C4117       C  0.73809597  0.99154079  0.49532758     0.15800
C4118       C  0.73665486  0.98880010  0.47740417    -0.18600
C4119       C  0.72994010  0.96682016  0.50577758    -0.20400
C4120       C  0.73146973  0.96978924  0.52358716    -0.13000
C4121       C  0.74137027  0.99756050  0.53129570     0.03700
C4122       C  0.74955686  0.52236692  0.52084269    -0.25100
H4123       H  0.76070631  0.56089419  0.46712648     0.08700
H4124       H  0.76330892  0.56582226  0.49819465     0.12300
H4125       H  0.72924720  0.96735073  0.47158111     0.12300
H4126       H  0.72235529  0.94518221  0.50018495     0.12000
H4127       H  0.72503104  0.95031861  0.53134094     0.12600
H4128       H  0.75705316  0.54387478  0.52661211     0.14500
C4129       C  0.00676471  0.73612724  0.46746364    -0.05500
C4130       C  0.99515532  0.70797844  0.47497222    -0.05400
C4131       C  0.99407260  0.70471906  0.49271059    -0.23600
C4132       C  0.00447695  0.72953641  0.50335772     0.18600
C4133       C  0.51624538  0.75799282  0.49601364     0.15800
C4134       C  0.51742497  0.76114411  0.47811043    -0.18600
C4135       C  0.52649998  0.78276365  0.50672555    -0.20400
C4136       C  0.52514053  0.77939440  0.52449909    -0.13000
C4137       C  0.01352558  0.75119788  0.53193553     0.03700
C4138       C  0.00320963  0.72631929  0.52122177    -0.25100
H4139       H  0.98684364  0.68831390  0.46710451     0.08700
H4140       H  0.98499077  0.68274212  0.49809707     0.12300
H4141       H  0.52633948  0.78295074  0.47250033     0.12300
H4142       H  0.53553431  0.80475083  0.50136596     0.12000
H4143       H  0.53317247  0.79894350  0.53243955     0.12600
H4144       H  0.99413402  0.70444024  0.52676091     0.14500
C4145       C  0.93391828  0.75001882  0.41802589    -0.05500
C4146       C  0.93699674  0.77837342  0.41864042    -0.05400
C4147       C  0.91212965  0.78182298  0.41886205    -0.23600
C4148       C  0.88366947  0.75698121  0.41844076     0.18600
C4149       C  0.88024695  0.72833731  0.41792714     0.15800
C4150       C  0.90536839  0.72502548  0.41776527    -0.18600
C4151       C  0.85174593  0.70351317  0.41745288    -0.20400
C4152       C  0.82688671  0.70702731  0.41735384    -0.13000
C4153       C  0.83004589  0.73542003  0.41779093     0.03700
C4154       C  0.85860101  0.76033709  0.41841167    -0.25100
H4155       H  0.95871189  0.79800477  0.41887256     0.08700
H4156       H  0.91517506  0.80394240  0.41926868     0.12300
H4157       H  0.90267343  0.70303989  0.41729323     0.12300
H4158       H  0.84867187  0.68138280  0.41707094     0.12000
H4159       H  0.80513974  0.68745641  0.41690896     0.12600
H4160       H  0.86136156  0.78235651  0.41873765     0.14500
C4161       C  0.68535774  0.75327145  0.41590938    -0.05500
C4162       C  0.68711608  0.78039551  0.41983891    -0.05400
C4163       C  0.66158223  0.78276565  0.42018403    -0.23600
C4164       C  0.63386308  0.75806184  0.41656327     0.18600
C4165       C  0.63188258  0.73075184  0.41244955     0.15800
C4166       C  0.65759175  0.72854131  0.41214929    -0.18600
C4167       C  0.60418056  0.70603413  0.40884286    -0.20400
C4168       C  0.57857826  0.70823117  0.40950824    -0.13000
C4169       C  0.58024682  0.73521720  0.41369600     0.03700
C4170       C  0.60807808  0.76014275  0.41710017    -0.25100
H4171       H  0.70821265  0.79972679  0.42283118     0.08700
H4172       H  0.66349799  0.80387577  0.42337473     0.12300
H4173       H  0.65592915  0.70749886  0.40905045     0.12300
H4174       H  0.60228877  0.68494969  0.40561008     0.12000
H4175       H  0.55744890  0.68878719  0.40672925     0.12600
H4176       H  0.60967930  0.78110583  0.42034845     0.14500
C4177       C  0.48148460  0.98238869  0.53230418    -0.05500
C4178       C  0.96846923  0.95556794  0.52315823    -0.05400
C4179       C  0.96804957  0.95538310  0.50528783    -0.23600
C4180       C  0.98056295  0.98202603  0.49614396     0.18600
C4181       C  0.49365939  0.50918525  0.50511684     0.15800
C4182       C  0.49410879  0.50921594  0.52313549    -0.18600
C4183       C  0.50603957  0.53579544  0.49588165    -0.20400
C4184       C  0.50546680  0.53549491  0.47795701    -0.13000
C4185       C  0.49259683  0.00858963  0.46890567     0.03700
C4186       C  0.98016813  0.98190402  0.47817391    -0.25100
H4187       H  0.95863186  0.93460085  0.52983297     0.08700
H4188       H  0.95790456  0.93434910  0.49861335     0.12300
H4189       H  0.50421035  0.53008268  0.52999012     0.12300
H4190       H  0.51617365  0.55685856  0.50251989     0.12000
H4191       H  0.51521845  0.55635291  0.47117368     0.12600
H4192       H  0.97010601  0.96094290  0.47141330     0.14500
C4193       C  0.82328889  0.51669339  0.41559504    -0.05500
C4194       C  0.84889630  0.54480279  0.41531128    -0.05400
C4195       C  0.87699932  0.54760483  0.41557124    -0.23600
C4196       C  0.87997245  0.52233824  0.41614234     0.18600
C4197       C  0.85434970  0.99400368  0.41644449     0.15800
C4198       C  0.82626273  0.99137426  0.41614706    -0.18600
C4199       C  0.85720415  0.96870863  0.41705775    -0.20400
C4200       C  0.88519387  0.97138924  0.41734519    -0.13000
C4201       C  0.91087274  0.49940714  0.41700399     0.03700
C4202       C  0.90807334  0.52487108  0.41641244    -0.25100
H4203       H  0.84721336  0.56465842  0.41489831     0.08700
H4204       H  0.89638808  0.56951805  0.41534149     0.12300
H4205       H  0.80671378  0.96955889  0.41639743     0.12300
H4206       H  0.83777609  0.94682385  0.41730628     0.12000
H4207       H  0.88671774  0.95144770  0.41778994     0.12600
H4208       H  0.92770080  0.54662906  0.41615602     0.14500
C4209       C  0.57193029  0.51388785  0.41667595    -0.05500
C4210       C  0.59704046  0.54181418  0.41393872    -0.05400
C4211       C  0.62521803  0.54501106  0.41321938    -0.23600
C4212       C  0.62884374  0.52035232  0.41529006     0.18600
C4213       C  0.60380308  0.99217479  0.41817834     0.15800
C4214       C  0.57549839  0.98910098  0.41882191    -0.18600
C4215       C  0.60752240  0.96756057  0.42032118    -0.20400
C4216       C  0.63575463  0.97080413  0.41951875    -0.13000
C4217       C  0.66077583  0.49871736  0.41657631     0.03700
C4218       C  0.65710609  0.52343752  0.41450459    -0.25100
H4219       H  0.59490009  0.56125401  0.41220470     0.08700
H4220       H  0.64416475  0.56676966  0.41100545     0.12300
H4221       H  0.55631582  0.96747033  0.42099318     0.12300
H4222       H  0.58861224  0.94580657  0.42259854     0.12000
H4223       H  0.63799662  0.95142298  0.42124822     0.12600
H4224       H  0.67621808  0.54509434  0.41227459     0.14500
C4225       C  0.75764985  0.74978162  0.19786949    -0.05500
C4226       C  0.78431718  0.76545207  0.18878011    -0.05400
C4227       C  0.78437421  0.76538054  0.17089613    -0.23600
C4228       C  0.75776825  0.74958097  0.16177032     0.18600
C4229       C  0.73083047  0.73354846  0.17074472     0.15800
C4230       C  0.73094159  0.73378186  0.18870554    -0.18600
C4231       C  0.70424609  0.71764362  0.16159128    -0.20400
C4232       C  0.70429304  0.71790910  0.14369549    -0.13000
C4233       C  0.73093259  0.73401537  0.13464183     0.03700
C4234       C  0.75764687  0.74966242  0.14382735    -0.25100
H4235       H  0.80516224  0.77784367  0.19550207     0.08700
H4236       H  0.80524531  0.77774349  0.16419890     0.12300
H4237       H  0.71019962  0.72140848  0.19553507     0.12300
H4238       H  0.68338831  0.70510574  0.16827521     0.12000
H4239       H  0.68347628  0.70553756  0.13694264     0.12600
H4240       H  0.77841309  0.76210673  0.13702800     0.14500
C4241       C  0.75337638  0.74017826  0.30081473    -0.05500
C4242       C  0.72946770  0.71503352  0.30818958    -0.05400
C4243       C  0.72692406  0.71159134  0.32592900    -0.23600
C4244       C  0.74792104  0.73356533  0.33668520     0.18600
C4245       C  0.77196717  0.75911830  0.32943747     0.15800
C4246       C  0.77484288  0.76204007  0.31152706    -0.18600
C4247       C  0.79242463  0.78147537  0.34025123    -0.20400
C4248       C  0.78905680  0.77860592  0.35802551    -0.13000
C4249       C  0.76549426  0.75309886  0.36536127     0.03700
C4250       C  0.74505737  0.73055097  0.35455854    -0.25100
H4251       H  0.71274888  0.69784579  0.30017745     0.08700
H4252       H  0.70831845  0.69189642  0.33123418     0.12300
H4253       H  0.79321066  0.78162873  0.30594679     0.12300
H4254       H  0.81091323  0.80128677  0.33496713     0.12000
H4255       H  0.80514952  0.79624827  0.36606522     0.12600
H4256       H  0.72665499  0.71088136  0.36005005     0.14500
C4257       C  0.75606534  0.82424310  0.25184865    -0.05500
C4258       C  0.78309031  0.85088038  0.25370915    -0.05400
C4259       C  0.78398686  0.87808149  0.25402634    -0.23600
C4260       C  0.75788144  0.87930305  0.25241131     0.18600
C4261       C  0.73050294  0.85272892  0.25065165     0.15800
C4262       C  0.72972945  0.82535596  0.25045992    -0.18600
C4263       C  0.70443394  0.85405964  0.24894134    -0.20400
C4264       C  0.70550894  0.88139806  0.24882514    -0.13000
C4265       C  0.73264777  0.90798647  0.25049976     0.03700
C4266       C  0.75877684  0.90668523  0.25238376    -0.25100
H4267       H  0.80371328  0.85074727  0.25486067     0.08700
H4268       H  0.80516866  0.89819925  0.25540706     0.12300
H4269       H  0.70873753  0.80503321  0.24900522     0.12300
H4270       H  0.68322185  0.83397168  0.24758552     0.12000
H4271       H  0.68501081  0.88170303  0.24739491     0.12600
H4272       H  0.77985380  0.92696849  0.25367109     0.14500
C4273       C  0.73487615  0.56377448  0.24851158    -0.05500
C4274       C  0.70790278  0.56347592  0.25035438    -0.05400
C4275       C  0.70705390  0.58979680  0.25038663    -0.23600
C4276       C  0.73315344  0.61701721  0.24848809     0.18600
C4277       C  0.76044156  0.61770887  0.24649636     0.15800
C4278       C  0.76115973  0.59108884  0.24656278    -0.18600
C4279       C  0.78650801  0.64504044  0.24457413    -0.20400
C4280       C  0.78558660  0.67139143  0.24486759    -0.13000
C4281       C  0.75857022  0.67092708  0.24699823     0.03700
C4282       C  0.73238089  0.64353795  0.24866882    -0.25100
H4283       H  0.68734614  0.54280221  0.25192900     0.08700
H4284       H  0.68594981  0.58884731  0.25194553     0.12300
H4285       H  0.78209085  0.59163721  0.24506474     0.12300
H4286       H  0.80763413  0.64606168  0.24296196     0.12000
H4287       H  0.80608154  0.69218106  0.24346368     0.12600
H4288       H  0.71140547  0.64283951  0.25033721     0.14500
C4289       C  0.74247051  0.49318420  0.13375597    -0.05500
C4290       C  0.71444731  0.98620044  0.14003366    -0.05400
C4291       C  0.70893902  0.98417830  0.15758465    -0.23600
C4292       C  0.73128867  0.98887059  0.16922034     0.18600
C4293       C  0.75963177  0.49609259  0.16306881     0.15800
C4294       C  0.76510341  0.49836852  0.14538352    -0.18600
C4295       C  0.78196373  0.50076348  0.17472080    -0.20400
C4296       C  0.77632736  0.49840321  0.19227367    -0.13000
C4297       C  0.74821514  0.49118133  0.19853351     0.03700
C4298       C  0.72573524  0.98638657  0.18688976    -0.25100
H4299       H  0.69668828  0.98232345  0.13133691     0.08700
H4300       H  0.68713450  0.97876110  0.16204619     0.12300
H4301       H  0.78676779  0.50370729  0.14068367     0.12300
H4302       H  0.80379328  0.50624906  0.17026906     0.12000
H4303       H  0.79403029  0.50213364  0.20097681     0.12600
H4304       H  0.70403042  0.98095516  0.19156332     0.14500
C4305       C  0.74196231  0.50418143  0.36416504    -0.05500
C4306       C  0.76663710  0.52669130  0.35566046    -0.05400
C4307       C  0.76849384  0.52679857  0.33789030    -0.23600
C4308       C  0.74535683  0.50473565  0.32824353     0.18600
C4309       C  0.72005173  0.98218668  0.33655899     0.15800
C4310       C  0.71871342  0.98173897  0.35457038    -0.18600
C4311       C  0.69659845  0.96074469  0.32665566    -0.20400
C4312       C  0.69841099  0.96153476  0.30873762    -0.13000
C4313       C  0.72390919  0.48345293  0.30049276     0.03700
C4314       C  0.74721209  0.50501742  0.31038522    -0.25100
H4315       H  0.78478901  0.54408962  0.36283088     0.08700
H4316       H  0.78797276  0.54427132  0.33168434     0.12300
H4317       H  0.69946907  0.96448076  0.36107378     0.12300
H4318       H  0.67690680  0.94340000  0.33275419     0.12000
H4319       H  0.68018799  0.94468577  0.30135087     0.12600
H4320       H  0.76685000  0.52226017  0.30415548     0.14500
C4321       C  0.00056928  0.75284417  0.19886946    -0.05500
C4322       C  0.97139015  0.73720253  0.19254981    -0.05400
C4323       C  0.96575386  0.73540277  0.17499746    -0.23600
C4324       C  0.98918614  0.74919051  0.16338315     0.18600
C4325       C  0.51859800  0.76507187  0.16959703     0.15800
C4326       C  0.52410876  0.76680564  0.18726620    -0.18600
C4327       C  0.54205157  0.77890677  0.15802530    -0.20400
C4328       C  0.53651426  0.77682380  0.14048005    -0.13000
C4329       C  0.00740077  0.76089899  0.13409773     0.03700
C4330       C  0.98374452  0.74723994  0.14567789    -0.25100
H4331       H  0.95278609  0.72630697  0.20120076     0.08700
H4332       H  0.94306576  0.72317458  0.17051649     0.12300
H4333       H  0.54667775  0.77901806  0.19195927     0.12300
H4334       H  0.56471914  0.79123492  0.16253195     0.12000
H4335       H  0.55519097  0.78766767  0.13187515     0.12600
H4336       H  0.96120938  0.73494966  0.14094112     0.14500
C4337       C  0.00523261  0.74433161  0.36457935    -0.05500
C4338       C  0.98391331  0.71884604  0.35595994    -0.05400
C4339       C  0.98313791  0.71757132  0.33817940    -0.23600
C4340       C  0.00385786  0.74166187  0.32859673     0.18600
C4341       C  0.52556679  0.76748969  0.33697708     0.15800
C4342       C  0.52594223  0.76881169  0.35498778    -0.18600
C4343       C  0.54657004  0.79128723  0.32713952    -0.20400
C4344       C  0.54589679  0.78947219  0.30922017    -0.13000
C4345       C  0.02393270  0.76403658  0.30091743     0.03700
C4346       C  0.00308331  0.74022095  0.31072979    -0.25100
H4347       H  0.96769150  0.69970218  0.36299639     0.08700
H4348       H  0.96640994  0.69761811  0.33192083     0.12300
H4349       H  0.54261124  0.78848964  0.36149327     0.12300
H4350       H  0.56343584  0.81127290  0.33328848     0.12000
H4351       H  0.56200787  0.80818386  0.30185267     0.12600
H4352       H  0.98615744  0.72042288  0.30441540     0.14500
C4353       C  0.50683765  0.83186693  0.25049983    -0.05500
C4354       C  0.97914037  0.82999400  0.25214216    -0.05400
C4355       C  0.97700235  0.85562915  0.25267065    -0.23600
C4356       C  0.00254173  0.88359080  0.25166093     0.18600
C4357       C  0.53052556  0.88577219  0.24996873     0.15800
C4358       C  0.53247809  0.85992565  0.24932141    -0.18600
C4359       C  0.55606681  0.91377355  0.24905242    -0.20400
C4360       C  0.55391328  0.93941432  0.24986205    -0.13000
C4361       C  0.02617079  0.93747849  0.25149823     0.03700
C4362       C  0.00055055  0.90939485  0.25235418    -0.25100
H4363       H  0.95909511  0.80868607  0.25303514     0.08700
H4364       H  0.95536534  0.85358257  0.25395441     0.12300
H4365       H  0.55401600  0.86170939  0.24805842     0.12300
H4366       H  0.57771129  0.91584814  0.24772609     0.12000
H4367       H  0.57393312  0.96075698  0.24903862     0.12600
H4368       H  0.97899016  0.90756605  0.25359071     0.14500
C4369       C  0.52300414  0.68618816  0.24918000    -0.05500
C4370       C  0.55147695  0.68949918  0.24893364    -0.05400
C4371       C  0.55517081  0.66476798  0.24879291    -0.23600
C4372       C  0.53045628  0.63621111  0.24885290     0.18600
C4373       C  0.00170844  0.63257419  0.24898854     0.15800
C4374       C  0.99815729  0.65754874  0.24918611    -0.18600
C4375       C  0.97699655  0.60400372  0.24897357    -0.20400
C4376       C  0.98070973  0.57927918  0.24897081    -0.13000
C4377       C  0.00919951  0.58262440  0.24900573     0.03700
C4378       C  0.53402465  0.61125711  0.24886408    -0.25100
H4379       H  0.57100652  0.71129202  0.24892115     0.08700
H4380       H  0.57736914  0.66799217  0.24867163     0.12300
H4381       H  0.97608549  0.65466959  0.24932473     0.12300
H4382       H  0.95479340  0.60076688  0.24903792     0.12000
H4383       H  0.96119276  0.55747693  0.24906406     0.12600
H4384       H  0.55610574  0.61415510  0.24885761     0.14500
C4385       C  0.50922747  0.51106053  0.13513379    -0.05500
C4386       C  0.98123410  0.99994540  0.14277895    -0.05400
C4387       C  0.97797293  0.99698949  0.16051319    -0.23600
C4388       C  0.00263485  0.00502554  0.17099198     0.18600
C4389       C  0.53089086  0.51612464  0.16346418     0.15800
C4390       C  0.53402700  0.51911524  0.14560362    -0.18600
C4391       C  0.55555633  0.52418947  0.17394869    -0.20400
C4392       C  0.55239023  0.52186243  0.19170839    -0.13000
C4393       C  0.52447033  0.51121329  0.19936134     0.03700
C4394       C  0.99956430  0.00245888  0.18886783    -0.25100
H4395       H  0.96173205  0.99352839  0.13502610     0.08700
H4396       H  0.95614809  0.98846355  0.16602858     0.12300
H4397       H  0.55569318  0.52753329  0.13987433     0.12300
H4398       H  0.57736386  0.53260284  0.16843073     0.12000
H4399       H  0.57192887  0.52860177  0.19948675     0.12600
H4400       H  0.97793608  0.99427457  0.19460370     0.14500
C4401       C  0.51439025  0.51453974  0.30215241    -0.05500
C4402       C  0.53698037  0.53955234  0.31051206    -0.05400
C4403       C  0.53612122  0.54308749  0.32818285    -0.23600
C4404       C  0.51293786  0.52136545  0.33794813     0.18600
C4405       C  0.99029606  0.99585801  0.32973961     0.15800
C4406       C  0.99090313  0.99281324  0.31186141    -0.18600
C4407       C  0.96767730  0.97366008  0.33960435    -0.20400
C4408       C  0.96770424  0.97649261  0.35739785    -0.13000
C4409       C  0.48991015  0.50187314  0.36566443     0.03700
C4410       C  0.51231233  0.52446460  0.35580740    -0.25100
H4411       H  0.55521078  0.55670320  0.30330893     0.08700
H4412       H  0.55374238  0.56271269  0.33422597     0.12300
H4413       H  0.97347433  0.97335296  0.30556674     0.12300
H4414       H  0.95020369  0.95389619  0.33359124     0.12000
H4415       H  0.95022653  0.95879802  0.36473824     0.12600
H4416       H  0.52975975  0.54393940  0.36208526     0.14500
loop_ 
_geom_bond_atom_site_label_1 
_geom_bond_atom_site_label_2 
_geom_bond_distance 
_geom_bond_site_symmetry_2 
_ccdc_geom_bond_type 
O1            V9   1.911       .  S
O1         C3323   1.268       .  A
O2            V9   1.912       .  S
O2         C3324   1.268       .  A
O3         V1113   1.893   1_545  S
O3           C13   1.263       .  A
O4            V9   1.892       .  S
O4           C14   1.263       .  A
O5         V1114   1.906       .  S
O5         C2222   1.267       .  A
O6           V10   1.905       .  S
O6         C2221   1.267       .  A
O7           V10   1.895       .  S
O7           C12   1.263       .  A
O8           V10   1.892       .  S
O8           C11   1.263       .  A
V9         O1107   1.893       .  S
V9         V3322   2.086       .  T
V10        O1109   1.906   1_545  S
V10        V3321   2.086   1_445  T
C11        O3313   1.268   1_445  A
C11        C1081   1.481       .  S
C12        O3314   1.268   1_445  A
C12        C1089   1.482       .  S
C13        O2214   1.267       .  A
C13        C1065   1.480       .  S
C14        O2213   1.267       .  A
C14        C1049   1.480       .  S
O15          V23   1.906       .  S
O15        C2233   1.267       .  A
O16          V23   1.906       .  S
O16        C2234   1.267       .  A
O17          V23   1.886       .  S
O17          C27   1.262       .  A
O18          V23   1.887       .  S
O18          C28   1.261       .  A
O19          V24   1.911       .  S
O19        C2236   1.269       .  A
O20          V24   1.913       .  S
O20        C2235   1.267       .  A
O21          V24   1.895       .  S
O21          C26   1.264       .  A
O22          V24   1.891       .  S
O22          C25   1.262       .  A
V23        V2232   2.086       .  T
V24        V2231   2.086   1_455  T
C25        O2223   1.267   1_455  A
C25        C1041   1.479       .  S
C26        O2224   1.267   1_455  A
C26        C1057   1.481       .  S
C27        O2228   1.267       .  A
C27        C1033   1.476       .  S
C28        O2227   1.269       .  A
C28        C1009   1.480       .  S
O29        V1141   1.908       .  S
O29          C39   1.268       .  A
O30          V37   1.910   1_545  S
O30          C40   1.267       .  A
O31          V37   1.889       .  S
O31          C41   1.263       .  A
O32          V37   1.889       .  S
O32          C42   1.262       .  A
O33          V38   1.910       .  S
O33        C1146   1.268       .  A
O34          V38   1.912       .  S
O34        C1145   1.267       .  A
O35        V1142   1.896   1_545  S
O35          C40   1.264       .  A
O36          V38   1.897       .  S
O36          C39   1.264       .  A
V37        O1133   1.908       .  S
V37        V1142   2.085       .  T
V38        O1139   1.896       .  S
V38        V1141   2.085       .  T
C39         C953   1.484       .  S
C40         C961   1.483       .  S
C41        O1138   1.267       .  A
C41        C1001   1.479       .  S
C42        O1137   1.268       .  A
C42         C985   1.479       .  S
O43          V51   1.911       .  S
O43          C53   1.268       .  A
O44          V51   1.905       .  S
O44          C54   1.267       .  A
O45          V51   1.894       .  S
O45          C55   1.263       .  A
O46          V51   1.894       .  S
O46          C56   1.263       .  A
O47          V52   1.909       .  S
O47          C56   1.268       .  A
O48          V52   1.912       .  S
O48          C55   1.267       .  A
O49          V52   1.899       .  S
O49          C54   1.264       .  A
O50          V52   1.895       .  S
O50          C53   1.264       .  A
V51          V52   2.086       .  T
C53         C945   1.485       .  S
C54         C969   1.482       .  S
C55         C929   1.480       .  S
C56         C913   1.483       .  S
O57          V65   1.912       .  S
O57        C1171   1.268   1_455  A
O58          V65   1.912       .  S
O58          C68   1.267   1_455  A
O59        V2273   1.898       .  S
O59          C69   1.264       .  A
O60          V65   1.892       .  S
O60          C70   1.263       .  A
O61        V2274   1.904   1_455  S
O61        C1174   1.266       .  A
O62          V66   1.899       .  S
O62        C1173   1.265       .  A
O63          V66   1.897       .  S
O63        C3380   1.264       .  A
O64          V66   1.897       .  S
O64        C2275   1.264       .  A
V65        O2267   1.898   1_455  S
V65        V3378   2.086   1_445  T
V66        O2269   1.904       .  S
V66        V3377   2.086       .  T
C67        O1161   1.268   1_655  A
C67        O2272   1.264       .  A
C67         C873   1.487       .  S
C68        O3375   1.264   1_545  A
C68        C1097   1.481       .  S
C69        O1166   1.265   1_545  A
C69         C889   1.479   1_545  S
C70        O1165   1.266   1_545  A
C70         C897   1.478       .  S
O71        V2287   1.894       .  S
O71          C81   1.264       .  A
O72          V79   1.894       .  S
O72          C82   1.263       .  A
O73          V79   1.914       .  S
O73        C2291   1.268       .  A
O74          V79   1.912       .  S
O74        C2292   1.268       .  A
O75          V80   1.889       .  S
O75          C84   1.262       .  A
O76          V80   1.886       .  S
O76          C83   1.262       .  A
O77        V2288   1.904   1_455  S
O77          C82   1.266       .  A
O78          V80   1.905       .  S
O78          C81   1.266       .  A
V79        O2279   1.894   1_455  S
V79        V2288   2.085   1_455  T
V80        O2285   1.904       .  S
V80        V2287   2.085       .  T
C81         C833   1.480       .  S
C82         C857   1.479       .  S
C83        O2281   1.268       .  A
C83        C1025   1.480       .  S
C84        O2282   1.268       .  A
C84         C817   1.482       .  S
O85          V93   1.895       .  S
O85        C1199   1.264       .  A
O86          V93   1.897       .  S
O86        C1200   1.265       .  A
O87          V93   1.908       .  S
O87          C97   1.267       .  A
O88          V93   1.910       .  S
O88        C1202   1.266       .  A
O89          V94   1.893       .  S
O89          C98   1.263       .  A
O90          V94   1.894       .  S
O90        C1201   1.264       .  A
O91          V94   1.901       .  S
O91          C96   1.265       .  A
O92          V94   1.901       .  S
O92          C95   1.266       .  A
V93        V1198   2.085       .  T
V94        V1197   2.085   1_545  T
C95        O1189   1.264   1_545  A
C95         C905   1.478   1_545  S
C96        O1190   1.265   1_545  A
C96         C881   1.480       .  S
C97        O1194   1.264       .  A
C97         C801   1.482       .  S
C98        O1192   1.266   1_545  A
C98         C993   1.475       .  S
O99         V107   1.904       .  S
O99         C109   1.266       .  A
O100        V107   1.901       .  S
O100        C110   1.266       .  A
O101        V107   1.902       .  S
O101        C111   1.265       .  A
O102        V107   1.902       .  S
O102        C112   1.265       .  A
O103        V108   1.905       .  S
O103        C112   1.266       .  A
O104        V108   1.905       .  S
O104        C111   1.266       .  A
O105        V108   1.897       .  S
O105        C110   1.264       .  A
O106        V108   1.894       .  S
O106        C109   1.264       .  A
V107        V108   2.086       .  T
C109        C849   1.479       .  S
C110        C841   1.480       .  S
C111        C937   1.483       .  S
C112        C785   1.485       .  S
O113        V121   1.889       .  S
O113       C3435   1.262       .  A
O114        V121   1.890       .  S
O114       C3436   1.262       .  A
O115       V1225   1.908       .  S
O115       C2333   1.267       .  A
O116        V121   1.909       .  S
O116       C2334   1.268       .  A
O117       V1226   1.890       .  S
O117        C126   1.262       .  A
O118        V122   1.895       .  S
O118        C125   1.264       .  A
O119        V122   1.910       .  S
O119        C124   1.268       .  A
O120        V122   1.909       .  S
O120        C123   1.267       .  A
V121       O1219   1.908       .  S
V121       V3434   2.086       .  T
V122       O1221   1.890   1_545  S
V122       V3433   2.086   1_455  T
C123       O3425   1.262   1_455  A
C123        C769   1.477       .  S
C124       O3426   1.262   1_455  A
C124       C1073   1.481       .  S
C125       O2323   1.267   1_455  A
C125        C761   1.483       .  S
C126       O2324   1.268   1_455  A
C126        C737   1.480       .  S
O127        V135   1.894       .  S
O127        C137   1.263       .  A
O128        V135   1.890       .  S
O128        C138   1.262       .  A
O129        V135   1.912       .  S
O129        C139   1.267       .  A
O130        V135   1.913       .  S
O130        C140   1.268       .  A
O131        V136   1.886       .  S
O131       C2348   1.261       .  A
O132        V136   1.887       .  S
O132       C2347   1.262   1_455  A
O133        V136   1.909       .  S
O133       C2346   1.268   1_455  A
O134        V136   1.910       .  S
O134       C2345   1.268   1_455  A
V135       V2344   2.086       .  T
V136       V2343   2.086   1_455  T
C137       O2342   1.268       .  A
C137        C753   1.484       .  S
C138       O2341   1.268       .  A
C138        C745   1.480       .  S
C139       O2340   1.262       .  A
C139        C729   1.477       .  S
C140       O2339   1.261       .  A
C140       C1017   1.481       .  S
O141        V149   1.910       .  S
O141        C151   1.267   1_545  A
O142        V149   1.909       .  S
O142        C152   1.267   1_545  A
O143       V1253   1.894       .  S
O143        C153   1.263       .  A
O144        V149   1.898       .  S
O144        C154   1.264       .  A
O145       V1254   1.906   1_545  S
O145        C154   1.267       .  A
O146        V150   1.910       .  S
O146        C153   1.267       .  A
O147        V150   1.889       .  S
O147       C1256   1.262       .  A
O148        V150   1.889       .  S
O148       C1255   1.263       .  A
V149       O1247   1.894   1_545  S
V149       V1254   2.086   1_545  T
V150       O1249   1.906       .  S
V150       V1253   2.086       .  T
C151       O1252   1.263       .  A
C151       C1817   1.478       .  S
C152       O1251   1.262       .  A
C152        C977   1.478       .  S
C153        C673   1.483       .  S
C154        C697   1.483       .  S
O155        V163   1.895       .  S
O155        C165   1.263       .  A
O156        V163   1.896       .  S
O156        C166   1.264       .  A
O157        V163   1.910       .  S
O157        C167   1.268       .  A
O158        V163   1.910       .  S
O158        C168   1.266       .  A
O159        V164   1.887       .  S
O159        C168   1.261       .  A
O160        V164   1.890       .  S
O160        C167   1.262       .  A
O161        V164   1.907       .  S
O161        C166   1.267       .  A
O162        V164   1.910       .  S
O162        C165   1.268       .  A
V163        V164   2.085       .  T
C165        C681   1.484       .  S
C166        C689   1.483       .  S
C167        C921   1.482       .  S
C168        C665   1.471       .  S
O169       V1281   1.906       .  S
O169        C179   1.266       .  A
O170       V2385   1.907   1_455  S
O170        C180   1.267       .  A
O171        V177   1.893       .  S
O171       C3493   1.264       .  A
O172        V177   1.892       .  S
O172       C3494   1.263       .  A
O173        V178   1.906       .  S
O173        C182   1.266   1_455  A
O174        V178   1.907       .  S
O174        C181   1.266   1_455  A
O175       V1282   1.891   1_545  S
O175        C180   1.263       .  A
O176       V2386   1.895       .  S
O176        C179   1.264       .  A
V177       O1273   1.906   1_545  S
V177       O2378   1.907       .  S
V177       V3490   2.085   1_545  T
V178       O1279   1.891       .  S
V178       O2384   1.895   1_455  S
V178       V3489   2.085   1_455  T
C179        C609   1.481       .  S
C180        C625   1.480       .  S
C181       O3483   1.264       .  A
C181        C641   1.481       .  S
C182       O3484   1.263       .  A
C182        C777   1.474       .  S
O183       V2399   1.909       .  S
O183        C193   1.268       .  A
O184        V191   1.906       .  S
O184        C194   1.267       .  A
O185        V191   1.890       .  S
O185       C2403   1.262       .  A
O186        V191   1.891       .  S
O186       C2404   1.262       .  A
O187        V192   1.909       .  S
O187        C196   1.268       .  A
O188        V192   1.910       .  S
O188        C195   1.266       .  A
O189       V2400   1.892   1_455  S
O189        C194   1.263       .  A
O190        V192   1.890       .  S
O190        C193   1.262       .  A
V191       O2391   1.909   1_455  S
V191       V2400   2.086   1_455  T
V192       O2397   1.892       .  S
V192       V2399   2.086       .  T
C193        C561   1.480       .  S
C194        C577   1.480       .  S
C195       O2393   1.262       .  A
C195        C721   1.473       .  S
C196       O2394   1.262       .  A
C196        C593   1.480       .  S
O197        V205   1.894       .  S
O197        C207   1.263       .  A
O198       V1309   1.888   1_545  S
O198        C208   1.262       .  A
O199        V205   1.911       .  S
O199        C209   1.266       .  A
O200        V205   1.910       .  S
O200        C210   1.268       .  A
O201        V206   1.890       .  S
O201       C1314   1.262       .  A
O202        V206   1.888       .  S
O202       C1313   1.262   1_545  A
O203        V206   1.909       .  S
O203        C208   1.268       .  A
O204       V1310   1.906       .  S
O204        C207   1.267       .  A
V205       O1302   1.888       .  S
V205       V1310   2.086       .  T
V206       O1308   1.906   1_545  S
V206       V1309   2.086   1_545  T
C207        C585   1.480       .  S
C208        C569   1.479       .  S
C209       O1306   1.262       .  A
C209        C705   1.472       .  S
C210       O1305   1.262       .  A
C210        C545   1.481       .  S
O211        V219   1.903       .  S
O211        C221   1.265       .  A
O212        V219   1.903       .  S
O212        C222   1.267       .  A
O213        V219   1.891       .  S
O213        C223   1.263       .  A
O214        V219   1.896       .  S
O214        C224   1.264       .  A
O215        V220   1.907       .  S
O215        C224   1.267       .  A
O216        V220   1.906       .  S
O216        C223   1.266       .  A
O217        V220   1.893       .  S
O217        C222   1.263       .  A
O218        V220   1.892       .  S
O218        C221   1.264       .  A
V219        V220   2.086       .  T
C221        C657   1.477       .  S
C222        C537   1.479       .  S
C223        C633   1.477       .  S
C224        C617   1.482       .  S
O225        V233   1.902       .  S
O225       C2443   1.266       .  A
O226        V233   1.903       .  S
O226       C2444   1.265       .  A
O227        V233   1.902       .  S
O227        C237   1.266       .  A
O228       V2441   1.899   1_455  S
O228        C238   1.264       .  A
O229        V234   1.907   1_455  S
O229       C1342   1.267   1_545  A
O230       V2442   1.905       .  S
O230       C1341   1.266   1_545  A
O231        V234   1.906       .  S
O231       C1340   1.266   1_545  A
O232        V234   1.906       .  S
O232       C1339   1.266   1_545  A
V233       O2436   1.899       .  S
V233       V3546   2.085       .  T
V234       O2438   1.905       .  S
V234       V3545   2.085   1_545  T
C235       O2433   1.266       .  A
C235       O1336   1.266       .  A
C235        C865   1.486       .  S
C236       O2434   1.265       .  A
C236       O1335   1.266       .  A
C236        C521   1.481       .  S
C237       O1334   1.266       .  A
C237        C481   1.485       .  S
C238       O1333   1.267       .  A
C238        C497   1.484       .  S
O239        V247   1.905       .  S
O239        C249   1.266       .  A
O240       V2455   1.902   1_455  S
O240        C250   1.266       .  A
O241        V247   1.906       .  S
O241        C251   1.266       .  A
O242        V247   1.905       .  S
O242        C252   1.267       .  A
O243        V248   1.897       .  S
O243       C2460   1.264       .  A
O244        V248   1.896       .  S
O244       C2459   1.264       .  A
O245        V248   1.898       .  S
O245        C250   1.264       .  A
O246       V2456   1.893       .  S
O246        C249   1.264       .  A
V247       O2448   1.902       .  S
V247       V2456   2.086       .  T
V248       O2454   1.893   1_455  S
V248       V2455   2.086   1_455  T
C249        C433   1.479       .  S
C250        C449   1.481       .  S
C251       O2452   1.264       .  A
C251        C465   1.478       .  S
C252       O2451   1.264       .  A
C252        C825   1.482       .  S
O253        V261   1.907       .  S
O253        C263   1.267       .  A
O254        V261   1.905       .  S
O254        C264   1.266       .  A
O255        V261   1.898       .  S
O255        C265   1.265       .  A
O256        V261   1.899       .  S
O256        C266   1.264       .  A
O257        V262   1.904       .  S
O257       C1370   1.266       .  A
O258        V262   1.905       .  S
O258       C1369   1.265       .  A
O259        V262   1.903       .  S
O259       C1368   1.266       .  A
O260        V262   1.898       .  S
O260       C1367   1.264       .  A
V261       V1366   2.086       .  T
V262       V1365   2.086   1_545  T
C263       O1364   1.264       .  A
C263        C505   1.484       .  S
C264       O1363   1.266       .  A
C264        C489   1.486       .  S
C265       O1362   1.265       .  A
C265        C417   1.479       .  S
C266       O1361   1.266       .  A
C266        C809   1.482       .  S
O267        V275   1.898       .  S
O267        C277   1.264       .  A
O268        V275   1.897       .  S
O268        C278   1.264       .  A
O269        V275   1.903       .  S
O269        C279   1.266       .  A
O270        V275   1.905       .  S
O270        C280   1.266       .  A
O271        V276   1.896       .  S
O271        C280   1.264       .  A
O272        V276   1.894       .  S
O272        C279   1.263       .  A
O273        V276   1.908       .  S
O273        C278   1.266       .  A
O274        V276   1.908       .  S
O274        C277   1.267       .  A
V275        V276   2.085       .  T
C277        C793   1.485       .  S
C278        C401   1.481       .  S
C279        C441   1.479       .  S
C280        C457   1.481       .  S
O281       V1393   1.899       .  S
O281        C291   1.265       .  A
O282       V2497   1.897   1_455  S
O282        C292   1.264       .  A
O283        V289   1.902       .  S
O283       C1397   1.265       .  A
O284        V289   1.900       .  S
O284       C1398   1.265       .  A
O285        V290   1.902       .  S
O285       C2502   1.265       .  A
O286        V290   1.905       .  S
O286       C2501   1.266   1_455  A
O287       V1394   1.903   1_545  S
O287        C292   1.266       .  A
O288       V2498   1.899       .  S
O288        C291   1.265       .  A
V289       O1385   1.899   1_545  S
V289       O2490   1.897       .  S
V289       V3602   2.086   1_545  T
V290       O1391   1.903       .  S
V290       O2496   1.899   1_455  S
V290       V3601   2.086   1_455  T
C291        C369   1.479       .  S
C292        C385   1.481       .  S
C293       O1387   1.265       .  A
C293       O2494   1.266       .  A
C293        C513   1.480       .  S
C294       O1388   1.265       .  A
C294       O2493   1.265       .  A
C294        C649   1.482       .  S
O295        V303   1.909       .  S
O295        C305   1.268       .  A
O296       V2511   1.910   1_455  S
O296        C306   1.268       .  A
O297        V303   1.890       .  S
O297       C2515   1.262       .  A
O298        V303   1.890       .  S
O298       C2516   1.262       .  A
O299        V304   1.910       .  S
O299        C308   1.268   1_455  A
O300        V304   1.911       .  S
O300        C307   1.267   1_455  A
O301        V304   1.891       .  S
O301        C306   1.263       .  A
O302       V2512   1.890       .  S
O302        C305   1.262       .  A
V303       O2504   1.910       .  S
V303       V2512   2.086       .  T
V304       O2510   1.890   1_455  S
V304       V2511   2.086   1_455  T
C305        C345   1.480       .  S
C306        C361   1.481       .  S
C307       O2505   1.262       .  A
C307        C473   1.479       .  S
C308       O2506   1.262       .  A
C308       C2809   1.481       .  S
O309       V1421   1.892       .  S
O309        C319   1.263       .  A
O310        V317   1.888       .  S
O310        C320   1.262       .  A
O311        V317   1.913       .  S
O311       C1425   1.268   1_545  A
O312        V317   1.913       .  S
O312       C1426   1.268   1_545  A
O313        V318   1.888       .  S
O313        C322   1.262       .  A
O314        V318   1.889       .  S
O314        C321   1.262       .  A
O315       V1422   1.910   1_545  S
O315        C320   1.268       .  A
O316        V318   1.909       .  S
O316        C319   1.268       .  A
V317       O1413   1.892   1_545  S
V317       V1422   2.086   1_545  T
V318       O1419   1.910       .  S
V318       V1421   2.086       .  T
C319        C353   1.482       .  S
C320        C337   1.480       .  S
C321       O1415   1.268       .  A
C321        C425   1.478       .  S
C322       O1416   1.268       .  A
C322        C553   1.481       .  S
O323        V331   1.899       .  S
O323        C333   1.265       .  A
O324        V331   1.898       .  S
O324        C334   1.264       .  A
O325        V331   1.910       .  S
O325        C335   1.266       .  A
O326        V331   1.907       .  S
O326        C336   1.267       .  A
O327        V332   1.890       .  S
O327        C336   1.263       .  A
O328        V332   1.892       .  S
O328        C335   1.263       .  A
O329        V332   1.902       .  S
O329        C334   1.266       .  A
O330        V332   1.898       .  S
O330        C333   1.265       .  A
V331        V332   2.086       .  T
C333        C377   1.479       .  S
C334        C393   1.481       .  S
C335        C409   1.477       .  S
C336        C529   1.479       .  S
C337        C338   1.405       .  A
C337        C342   1.408       .  A
C338        C339   1.399       .  A
C338        H347   1.083       .  S
C339        C340   1.404       .  A
C339        H348   1.084       .  S
C340        C346   1.403       .  A
C340        C341   1.412       .  A
C341        C343   1.403       .  A
C341        C342   1.402       .  A
C342        H349   1.085       .  S
C343        C344   1.398       .  A
C343        H350   1.084       .  S
C344        C345   1.404       .  A
C344        H351   1.083       .  S
C345        C346   1.409       .  A
C346        H352   1.084       .  S
C353        C354   1.408       .  A
C353        C358   1.405       .  A
C354        C355   1.397       .  A
C354        H363   1.083       .  S
C355        C356   1.400       .  A
C355        H364   1.084       .  S
C356        C362   1.406       .  A
C356        C357   1.415       .  A
C357        C359   1.400       .  A
C357        C358   1.405       .  A
C358        H365   1.084       .  S
C359        C360   1.396       .  A
C359        H366   1.084       .  S
C360        C361   1.408       .  A
C360        H367   1.083       .  S
C361        C362   1.406       .  A
C362        H368   1.084       .  S
C369        C370   1.406       .  A
C369        C374   1.406       .  A
C370        C371   1.397       .  A
C370        H379   1.083       .  S
C371        C372   1.402       .  A
C371        H380   1.084       .  S
C372        C378   1.403       .  A
C372        C373   1.414       .  A
C373        C375   1.401       .  A
C373        C374   1.403       .  A
C374        H381   1.084       .  S
C375        C376   1.397       .  A
C375        H382   1.084       .  S
C376        C377   1.406       .  A
C376        H383   1.083       .  S
C377        C378   1.407       .  A
C378        H384   1.084       .  S
C385        C386   1.406       .  A
C385        C390   1.406       .  A
C386        C387   1.397       .  A
C386        H395   1.083       .  S
C387        C388   1.402       .  A
C387        H396   1.084       .  S
C388        C394   1.405       .  A
C388        C389   1.414       .  A
C389        C391   1.401       .  A
C389        C390   1.404       .  A
C390        H397   1.084       .  S
C391        C392   1.397       .  A
C391        H398   1.084       .  S
C392        C393   1.406       .  A
C392        H399   1.083       .  S
C393        C394   1.407       .  A
C394        H400   1.084       .  S
C401        C402   1.406       .  A
C401        C406   1.404       .  A
C402        C403   1.402       .  A
C402        H411   1.083       .  S
C403        C404   1.404       .  A
C403        H412   1.083       .  S
C404        C410   1.409       .  A
C404        C405   1.415       .  A
C405        C407   1.400       .  A
C405        C406   1.402       .  A
C406        H413   1.084       .  S
C407        C408   1.394       .  A
C407        H414   1.084       .  S
C408        C409   1.405       .  A
C408        H415   1.083       .  S
C409        C410   1.407       .  A
C410        H416   1.084       .  S
C417        C422   1.404       .  A
C417       C1522   1.406       .  A
C418        C419   1.401       .  A
C418       C1521   1.406       .  A
C418        H427   1.083       .  S
C419        C420   1.404       .  A
C419        H428   1.083       .  S
C420        C426   1.409       .  A
C420       C1525   1.415   1_545  A
C421        C423   1.400       .  A
C421        C422   1.402       .  A
C421       C1524   1.415       .  A
C422        H429   1.084       .  S
C423        C424   1.394       .  A
C423        H430   1.084       .  S
C424        C425   1.406       .  A
C424        H431   1.083       .  S
C425       C1530   1.407       .  A
C426       C1529   1.407   1_545  A
C426        H432   1.084       .  S
C433        C434   1.406       .  A
C433        C438   1.406       .  A
C434        C435   1.399       .  A
C434        H443   1.083       .  S
C435        C436   1.404       .  A
C435        H444   1.084       .  S
C436        C442   1.404       .  A
C436        C437   1.413       .  A
C437        C439   1.401       .  A
C437        C438   1.400       .  A
C438        H445   1.084       .  S
C439        C440   1.396       .  A
C439        H446   1.084       .  S
C440        C441   1.405       .  A
C440        H447   1.083       .  S
C441        C442   1.409       .  A
C442        H448   1.084       .  S
C449        C450   1.407       .  A
C449        C454   1.406       .  A
C450        C451   1.398       .  A
C450        H459   1.083       .  S
C451        C452   1.402       .  A
C451        H460   1.084       .  S
C452        C458   1.406       .  A
C452        C453   1.414       .  A
C453        C455   1.400       .  A
C453        C454   1.404       .  A
C454        H461   1.084       .  S
C455        C456   1.396       .  A
C455        H462   1.084       .  S
C456        C457   1.407       .  A
C456        H463   1.083       .  S
C457        C458   1.407       .  A
C458        H464   1.084       .  S
C465        C470   1.404       .  A
C465       C2674   1.405       .  A
C466        C467   1.401       .  A
C466       C2673   1.405       .  A
C466        H475   1.083       .  S
C467        C468   1.404       .  A
C467        H476   1.083       .  S
C468        C474   1.408       .  A
C468       C2677   1.414       .  A
C469        C471   1.400       .  A
C469        C470   1.401       .  A
C469       C2676   1.414       .  A
C470        H477   1.085       .  S
C471        C472   1.394       .  A
C471        H478   1.084       .  S
C472       C2681   1.406       .  A
C472        H479   1.083       .  S
C473        C474   1.407   1_655  A
C473       C2680   1.406       .  A
C474        H480   1.084       .  S
C481        C482   1.407       .  A
C481       C1590   1.408       .  A
C482        C483   1.398       .  A
C482        H491   1.083       .  S
C483        C484   1.402       .  A
C483        H492   1.084       .  S
C484        C490   1.407       .  A
C484       C1589   1.414       .  A
C485        C487   1.402       .  A
C485        C486   1.407       .  A
C485       C1588   1.414   1_545  A
C486       C1585   1.408   1_545  A
C486        H493   1.084       .  S
C487        C488   1.399       .  A
C487        H494   1.084       .  S
C488       C1593   1.407       .  A
C488        H495   1.083       .  S
C489        C490   1.408       .  A
C489       C1592   1.407       .  A
C490        H496   1.084       .  S
C497        C498   1.407       .  A
C497       C1606   1.407       .  A
C498        C499   1.398       .  A
C498        H507   1.083       .  S
C499        C500   1.402       .  A
C499        H508   1.084       .  S
C500        C506   1.407       .  A
C500       C1605   1.414       .  A
C501        C503   1.401       .  A
C501        C502   1.406       .  A
C501       C1604   1.414   1_545  A
C502       C1601   1.407   1_545  A
C502        H509   1.084       .  S
C503        C504   1.397       .  A
C503        H510   1.084       .  S
C504       C1609   1.407       .  A
C504        H511   1.083       .  S
C505        C506   1.407       .  A
C505       C1608   1.407       .  A
C506        H512   1.084       .  S
C513        C514   1.405       .  A
C513       C3830   1.407       .  A
C514        C515   1.399       .  A
C514        H523   1.083       .  S
C515        C516   1.403       .  A
C515        H524   1.083       .  S
C516        C522   1.407       .  A
C516       C3829   1.415       .  A
C517        C519   1.403       .  A
C517        C518   1.407       .  A
C517       C3828   1.415   1_565  A
C518       C3825   1.407   1_565  A
C518        H525   1.084       .  S
C519        C520   1.399       .  A
C519        H526   1.084       .  S
C520       C1625   1.405       .  A
C520        H527   1.083       .  S
C521       C1624   1.405       .  A
C521       C2730   1.406       .  A
C522       C2729   1.406       .  A
C522        H528   1.084       .  S
C529        C530   1.407       .  A
C529        C534   1.406       .  A
C530        C531   1.394       .  A
C530        H539   1.083       .  S
C531        C532   1.399       .  A
C531        H540   1.084       .  S
C532        C538   1.402       .  A
C532        C533   1.414       .  A
C533        C535   1.402       .  A
C533        C534   1.406       .  A
C534        H541   1.084       .  S
C535        C536   1.398       .  A
C535        H542   1.084       .  S
C536        C537   1.407       .  A
C536        H543   1.083       .  S
C537        C538   1.404       .  A
C538        H544   1.084       .  S
C545        C550   1.404       .  A
C545       C1650   1.408       .  A
C546        C547   1.397       .  A
C546       C1649   1.408       .  A
C546        H555   1.083       .  S
C547        C548   1.400       .  A
C547        H556   1.084       .  S
C548        C554   1.407       .  A
C548       C1653   1.415   1_545  A
C549        C551   1.399       .  A
C549        C550   1.405       .  A
C549       C1652   1.415       .  A
C550        H557   1.084       .  S
C551        C552   1.395       .  A
C551        H558   1.084       .  S
C552        C553   1.408       .  A
C552        H559   1.083       .  S
C553       C1658   1.405       .  A
C554       C1657   1.405       .  A
C554        H560   1.084       .  S
C561        C562   1.408       .  A
C561        C566   1.404       .  A
C562        C563   1.396       .  A
C562        H571   1.083       .  S
C563        C564   1.400       .  A
C563        H572   1.084       .  S
C564        C570   1.405       .  A
C564        C565   1.415       .  A
C565        C567   1.400       .  A
C565        C566   1.404       .  A
C566        H573   1.084       .  S
C567        C568   1.395       .  A
C567        H574   1.084       .  S
C568        C569   1.407       .  A
C568        H575   1.083       .  S
C569        C570   1.405       .  A
C570        H576   1.084       .  S
C577        C578   1.405       .  A
C577        C582   1.407       .  A
C578        C579   1.399       .  A
C578        H587   1.083       .  S
C579        C580   1.403       .  A
C579        H588   1.084       .  S
C580        C586   1.404       .  A
C580        C581   1.412       .  A
C581        C583   1.402       .  A
C581        C582   1.402       .  A
C582        H589   1.084       .  S
C583        C584   1.397       .  A
C583        H590   1.084       .  S
C584        C585   1.405       .  A
C584        H591   1.083       .  S
C585        C586   1.409       .  A
C586        H592   1.084       .  S
C593        C598   1.405       .  A
C593       C2802   1.407       .  A
C594        C595   1.396       .  A
C594       C2801   1.407       .  A
C594        H603   1.083       .  S
C595        C596   1.400       .  A
C595        H604   1.084       .  S
C596        C602   1.405       .  A
C596       C2805   1.415   1_455  A
C597        C599   1.400       .  A
C597        C598   1.405       .  A
C597       C2804   1.415       .  A
C598        H605   1.084       .  S
C599        C600   1.396       .  A
C599        H606   1.084       .  S
C600        C601   1.408       .  A
C600        H607   1.083       .  S
C601       C2516   1.481       .  S
C601       C2810   1.405       .  A
C602       C2809   1.405   1_455  A
C602        H608   1.084       .  S
C609        C610   1.407       .  A
C609        C614   1.406       .  A
C610        C611   1.396       .  A
C610        H619   1.083       .  S
C611        C612   1.401       .  A
C611        H620   1.084       .  S
C612        C618   1.405       .  A
C612        C613   1.414       .  A
C613        C615   1.401       .  A
C613        C614   1.406       .  A
C614        H621   1.084       .  S
C615        C616   1.398       .  A
C615        H622   1.084       .  S
C616        C617   1.407       .  A
C616        H623   1.083       .  S
C617        C618   1.406       .  A
C618        H624   1.084       .  S
C625        C626   1.405       .  A
C625        C630   1.408       .  A
C626        C627   1.398       .  A
C626        H635   1.083       .  S
C627        C628   1.403       .  A
C627        H636   1.084       .  S
C628        C634   1.402       .  A
C628        C629   1.412       .  A
C629        C631   1.403       .  A
C629        C630   1.402       .  A
C630        H637   1.084       .  S
C631        C632   1.398       .  A
C631        H638   1.084       .  S
C632        C633   1.404       .  A
C632        H639   1.083       .  S
C633        C634   1.407       .  A
C634        H640   1.084       .  S
C641       C2850   1.407       .  A
C641       C1750   1.408   1_655  A
C642        C643   1.395       .  A
C642       C2849   1.407       .  A
C642        H651   1.083       .  S
C643        C644   1.400       .  A
C643        H652   1.084       .  S
C644        C650   1.402       .  A
C644       C3957   1.414       .  A
C645        C647   1.403       .  A
C645        C646   1.407       .  A
C645       C3956   1.414   1_465  A
C646       C1745   1.408   1_465  A
C646        H653   1.084       .  S
C647        C648   1.400       .  A
C647        H654   1.084       .  S
C648       C3961   1.407   1_565  A
C648        H655   1.083       .  S
C649        C650   1.405       .  A
C649       C3960   1.407       .  A
C650        H656   1.084       .  S
C657        C658   1.406       .  A
C657        C662   1.404       .  A
C658        C659   1.400       .  A
C658        H667   1.083       .  S
C659        C660   1.403   1_556  A
C659        H668   1.084       .  S
C660        C666   1.407       .  A
C660        C661   1.415   1_554  A
C661        C663   1.399   1_556  A
C661        C662   1.400       .  A
C662        H669   1.084       .  S
C663        C664   1.393       .  A
C663        H670   1.084       .  S
C664        C665   1.404       .  A
C664        H671   1.083       .  S
C665        C666   1.404       .  A
C666        H672   1.084       .  S
C673        C674   1.407       .  A
C673        C678   1.407       .  A
C674        C675   1.397       .  A
C674        H683   1.083       .  S
C675        C676   1.400       .  A
C675        H684   1.084       .  S
C676        C682   1.406       .  A
C676        C677   1.415       .  A
C677        C679   1.401       .  A
C677        C678   1.407       .  A
C678        H685   1.084       .  S
C679        C680   1.398       .  A
C679        H686   1.084       .  S
C680        C681   1.408       .  A
C680        H687   1.083       .  S
C681        C682   1.406       .  A
C682        H688   1.084       .  S
C689        C690   1.407       .  A
C689        C694   1.407       .  A
C690        C691   1.397       .  A
C690        H699   1.083       .  S
C691        C692   1.401       .  A
C691        H700   1.084       .  S
C692        C698   1.405       .  A
C692        C693   1.414       .  A
C693        C695   1.401       .  A
C693        C694   1.406       .  A
C694        H701   1.084       .  S
C695        C696   1.398       .  A
C695        H702   1.084       .  S
C696        C697   1.407       .  A
C696        H703   1.083       .  S
C697        C698   1.406       .  A
C698        H704   1.084       .  S
C705        C706   1.403       .  A
C705       C1814   1.406       .  A
C706        C707   1.392       .  A
C706        H715   1.084       .  S
C707        C708   1.400   1_556  A
C707        H716   1.084       .  S
C708        C714   1.399       .  A
C708       C1813   1.414   1_554  A
C709        C711   1.405   1_566  A
C709        C710   1.409       .  A
C709       C1812   1.414   1_556  A
C710       C1809   1.406       .  A
C710        H717   1.084   1_565  S
C711        C712   1.402       .  A
C711        H718   1.083       .  S
C712       C1817   1.405   1_545  A
C712        H719   1.083       .  S
C713       C1255   1.478       .  S
C713        C714   1.404       .  A
C713       C1816   1.405       .  A
C714        H720   1.085       .  S
C721        C726   1.406       .  A
C721       C2930   1.404       .  A
C722        C723   1.393       .  A
C722       C2929   1.404       .  A
C722        H731   1.084       .  S
C723        C724   1.400   1_556  A
C723        H732   1.084   1_556  S
C724        C730   1.400       .  A
C724       C2933   1.414   1_454  A
C725        C727   1.405   1_556  A
C725        C726   1.408       .  A
C725       C2932   1.414   1_556  A
C726        H733   1.084       .  S
C727        C728   1.402       .  A
C727        H734   1.083   1_554  S
C728        C729   1.404       .  A
C728        H735   1.083       .  S
C729       C2938   1.405       .  A
C730       C2937   1.405   1_455  A
C730        H736   1.085       .  S
C737        C738   1.407       .  A
C737       C2950   1.405   1_455  A
C738        C739   1.396       .  A
C738        H747   1.083       .  S
C739        C740   1.400       .  A
C739        H748   1.084       .  S
C740        C746   1.405       .  A
C740       C2949   1.415   1_455  A
C741        C743   1.400       .  A
C741        C742   1.405       .  A
C741       C2948   1.415       .  A
C742       C2945   1.405       .  A
C742        H749   1.084       .  S
C743        C744   1.396       .  A
C743        H750   1.084       .  S
C744        C745   1.408       .  A
C744        H751   1.083       .  S
C745       C2954   1.404       .  A
C746       C2953   1.404   1_455  A
C746        H752   1.084       .  S
C753        C754   1.408       .  A
C753       C2966   1.406       .  A
C754        C755   1.397       .  A
C754        H763   1.083       .  S
C755        C756   1.401       .  A
C755        H764   1.084       .  S
C756        C762   1.406       .  A
C756       C2965   1.415       .  A
C757        C759   1.401       .  A
C757        C758   1.407       .  A
C757       C2964   1.415   1_455  A
C758       C2961   1.406   1_455  A
C758        H765   1.084       .  S
C759        C760   1.398       .  A
C759        H766   1.084       .  S
C760        C761   1.408       .  A
C760        H767   1.083       .  S
C761       C2970   1.406   1_455  A
C762       C2969   1.406       .  A
C762        H768   1.084       .  S
C769        C770   1.405       .  A
C769       C4086   1.405   1_455  A
C770        C771   1.400       .  A
C770        H779   1.083       .  S
C771        C772   1.404   1_554  A
C771        H780   1.084   1_554  S
C772        C778   1.406       .  A
C772       C4085   1.414   1_456  A
C773        C775   1.401   1_554  A
C773        C774   1.400       .  A
C773       C4084   1.414   1_554  A
C774       C4081   1.405       .  A
C774        H781   1.085       .  S
C775        C776   1.394       .  A
C775        H782   1.084   1_556  S
C776       C2985   1.404       .  A
C776        H783   1.083       .  S
C777       C2984   1.404       .  A
C777       C1882   1.406   1_655  A
C778       C1881   1.406   1_455  A
C778        H784   1.084       .  S
C785        C786   1.406       .  A
C785        C790   1.408       .  A
C786        C787   1.399       .  A
C786        H795   1.083       .  S
C787        C788   1.402       .  A
C787        H796   1.084       .  S
C788        C794   1.407       .  A
C788        C789   1.414       .  A
C789        C791   1.402       .  A
C789        C790   1.406       .  A
C790        H797   1.084       .  S
C791        C792   1.398       .  A
C791        H798   1.084       .  S
C792        C793   1.407       .  A
C792        H799   1.083       .  S
C793        C794   1.407       .  A
C794        H800   1.084       .  S
C801        C806   1.407       .  A
C801       C1906   1.407       .  A
C802        C803   1.396       .  A
C802       C1905   1.407       .  A
C802        H811   1.083       .  S
C803        C804   1.400       .  A
C803        H812   1.084       .  S
C804        C810   1.404       .  A
C804       C1909   1.414   1_545  A
C805        C807   1.402       .  A
C805        C806   1.407       .  A
C805       C1908   1.414       .  A
C806        H813   1.084       .  S
C807        C808   1.399       .  A
C807        H814   1.084       .  S
C808        C809   1.407       .  A
C808        H815   1.083       .  S
C809       C1914   1.405       .  A
C810       C1913   1.405   1_545  A
C810        H816   1.084       .  S
C817        C818   1.408       .  A
C817       C3030   1.406       .  A
C818        C819   1.395       .  A
C818        H827   1.083       .  S
C819        C820   1.400       .  A
C819        H828   1.084       .  S
C820        C826   1.405       .  A
C820       C3029   1.415       .  A
C821        C823   1.401       .  A
C821        C822   1.407       .  A
C821       C3028   1.415       .  A
C822       C3025   1.406       .  A
C822        H829   1.084       .  S
C823        C824   1.398       .  A
C823        H830   1.084       .  S
C824       C3033   1.407       .  A
C824        H831   1.083       .  S
C825        C826   1.405       .  A
C825       C3032   1.407       .  A
C826        H832   1.084       .  S
C833        C834   1.407       .  A
C833        C838   1.406       .  A
C834        C835   1.396       .  A
C834        H843   1.083       .  S
C835        C836   1.400       .  A
C835        H844   1.084       .  S
C836        C842   1.403       .  A
C836        C837   1.414       .  A
C837        C839   1.401       .  A
C837        C838   1.405       .  A
C838        H845   1.084       .  S
C839        C840   1.397       .  A
C839        H846   1.084       .  S
C840        C841   1.407       .  A
C840        H847   1.083       .  S
C841        C842   1.405       .  A
C842        H848   1.084       .  S
C849        C850   1.405       .  A
C849        C854   1.407       .  A
C850        C851   1.398       .  A
C850        H859   1.083       .  S
C851        C852   1.403       .  A
C851        H860   1.084       .  S
C852        C858   1.403       .  A
C852        C853   1.413       .  A
C853        C855   1.402       .  A
C853        C854   1.402       .  A
C854        H861   1.084       .  S
C855        C856   1.397       .  A
C855        H862   1.084       .  S
C856        C857   1.405       .  A
C856        H863   1.083       .  S
C857        C858   1.408       .  A
C858        H864   1.084       .  S
C865       C3074   1.406       .  A
C865       C1974   1.410       .  A
C866        C867   1.397       .  A
C866       C3073   1.406       .  A
C866        H875   1.083       .  S
C867        C868   1.402       .  A
C867        H876   1.084       .  S
C868        C874   1.405       .  A
C868       C4181   1.413       .  A
C869        C871   1.404   1_655  A
C869        C870   1.409       .  A
C869       C4180   1.413   1_545  A
C870       C1969   1.410   1_545  A
C870        H877   1.084   1_655  S
C871        C872   1.402       .  A
C871        H878   1.084       .  S
C872       C1977   1.406   1_455  A
C872        H879   1.083       .  S
C873       C1976   1.406   1_655  A
C873       C3082   1.409       .  A
C874       C3081   1.409       .  A
C874        H880   1.084       .  S
C881        C882   1.406       .  A
C881       C1990   1.406   1_545  A
C882        C883   1.399       .  A
C882        H891   1.083       .  S
C883        C884   1.403       .  A
C883        H892   1.084       .  S
C884        C890   1.404       .  A
C884       C1989   1.413   1_545  A
C885        C887   1.401       .  A
C885        C886   1.402       .  A
C885       C1988   1.413       .  A
C886       C1985   1.406       .  A
C886        H893   1.084       .  S
C887        C888   1.395       .  A
C887        H894   1.084       .  S
C888       C1993   1.405       .  A
C888        H895   1.083       .  S
C889        C890   1.408   1_565  A
C889       C1992   1.405       .  A
C890        H896   1.084       .  S
C897        C898   1.406       .  A
C897       C2006   1.406   1_545  A
C898        C899   1.395       .  A
C898        H907   1.083       .  S
C899        C900   1.400       .  A
C899        H908   1.084       .  S
C900        C906   1.402       .  A
C900       C2005   1.414   1_545  A
C901        C903   1.401       .  A
C901        C902   1.404       .  A
C901       C2004   1.414       .  A
C902       C2001   1.406       .  A
C902        H909   1.084       .  S
C903        C904   1.397       .  A
C903        H910   1.084       .  S
C904       C2009   1.407       .  A
C904        H911   1.083       .  S
C905        C906   1.405   1_565  A
C905       C2008   1.407       .  A
C906        H912   1.084       .  S
C913        C914   1.405       .  A
C913        C918   1.409       .  A
C914        C915   1.398       .  A
C914        H923   1.083       .  S
C915        C916   1.403       .  A
C915        H924   1.084       .  S
C916        C922   1.403       .  A
C916        C917   1.412       .  A
C917        C919   1.404       .  A
C917        C918   1.404       .  A
C918        H925   1.084       .  S
C919        C920   1.399       .  A
C919        H926   1.084       .  S
C920        C921   1.405       .  A
C920        H927   1.083       .  S
C921        C922   1.409       .  A
C922        H928   1.084       .  S
C929        C930   1.406       .  A
C929        C934   1.406       .  A
C930        C931   1.397       .  A
C930        H939   1.083       .  S
C931        C932   1.401       .  A
C931        H940   1.084       .  S
C932        C938   1.406       .  A
C932        C933   1.415       .  A
C933        C935   1.402       .  A
C933        C934   1.409       .  A
C934        H941   1.084       .  S
C935        C936   1.400       .  A
C935        H942   1.084       .  S
C936        C937   1.406       .  A
C936        H943   1.083       .  S
C937        C938   1.406       .  A
C938        H944   1.084       .  S
C945        C946   1.407       .  A
C945        C950   1.408       .  A
C946        C947   1.396       .  A
C946        H955   1.083       .  S
C947        C948   1.400       .  A
C947        H956   1.084       .  S
C948        C954   1.406       .  A
C948        C949   1.414       .  A
C949        C951   1.402       .  A
C949        C950   1.408       .  A
C950        H957   1.084       .  S
C951        C952   1.399       .  A
C951        H958   1.084       .  S
C952        C953   1.408       .  A
C952        H959   1.083       .  S
C953        C954   1.406       .  A
C954        H960   1.084       .  S
C961        C962   1.407       .  A
C961        C966   1.408       .  A
C962        C963   1.396       .  A
C962        H971   1.083       .  S
C963        C964   1.400       .  A
C963        H972   1.084       .  S
C964        C970   1.404       .  A
C964        C965   1.414       .  A
C965        C967   1.403       .  A
C965        C966   1.408       .  A
C966        H973   1.084       .  S
C967        C968   1.400       .  A
C967        H974   1.084       .  S
C968        C969   1.407       .  A
C968        H975   1.083       .  S
C969        C970   1.405       .  A
C970        H976   1.084       .  S
C977        C982   1.404       .  A
C977       C2082   1.407       .  A
C978        C979   1.395       .  A
C978       C2081   1.407       .  A
C978        H987   1.083       .  S
C979        C980   1.400       .  A
C979        H988   1.084       .  S
C980        C986   1.405       .  A
C980       C2085   1.415       .  A
C981        C983   1.400   1_565  A
C981        C982   1.405       .  A
C981       C2084   1.415       .  A
C982        H989   1.084   1_565  S
C983        C984   1.396   1_545  A
C983        H990   1.084       .  S
C984        C985   1.407       .  A
C984        H991   1.083   1_565  S
C985       C2090   1.404       .  A
C986       C2089   1.404       .  A
C986        H992   1.084       .  S
C993        C994   1.403       .  A
C993       C2102   1.408   1_545  A
C994        C995   1.393       .  A
C994       H1003   1.083       .  S
C995        C996   1.400       .  A
C995       H1004   1.084       .  S
C996       C1002   1.399       .  A
C996       C2101   1.414   1_545  A
C997        C999   1.406       .  A
C997        C998   1.410       .  A
C997       C2100   1.414       .  A
C998       C2097   1.408       .  A
C998       H1005   1.084       .  S
C999       C1000   1.403       .  A
C999       H1006   1.083       .  S
C1000      C2105   1.405       .  A
C1000      H1007   1.083       .  S
C1001      C1002   1.404   1_565  A
C1001      C2104   1.405       .  A
C1002      H1008   1.085       .  S
C1009      C1010   1.408       .  A
C1009      C3222   1.404       .  A
C1010      C1011   1.397       .  A
C1010      H1019   1.083       .  S
C1011      C1012   1.400       .  A
C1011      H1020   1.084       .  S
C1012      C1018   1.406       .  A
C1012      C3221   1.416       .  A
C1013      C1015   1.399       .  A
C1013      C1014   1.404       .  A
C1013      C3220   1.416   1_455  A
C1014      C3217   1.404       .  A
C1014      H1021   1.084       .  S
C1015      C1016   1.395       .  A
C1015      H1022   1.084       .  S
C1016      C3225   1.408       .  A
C1016      H1023   1.083       .  S
C1017      C1018   1.405       .  A
C1017      C3224   1.408       .  A
C1018      H1024   1.084       .  S
C1025      C1026   1.406       .  A
C1025      C3238   1.409       .  A
C1026      C1027   1.391       .  A
C1026      H1035   1.083       .  S
C1027      C1028   1.398       .  A
C1027      H1036   1.084       .  S
C1028      C1034   1.398       .  A
C1028      C3237   1.414       .  A
C1029      C1031   1.406       .  A
C1029      C1030   1.409       .  A
C1029      C3236   1.414       .  A
C1030      C3233   1.409       .  A
C1030      H1037   1.084       .  S
C1031      C1032   1.403       .  A
C1031      H1038   1.083       .  S
C1032      C3241   1.404       .  A
C1032      H1039   1.083       .  S
C1033      C1034   1.403       .  A
C1033      C3240   1.404       .  A
C1034      H1040   1.085       .  S
C1041      C1046   1.408       .  A
C1041      C3250   1.404   1_455  A
C1042      C1043   1.397       .  A
C1042      C3249   1.404       .  A
C1042      H1051   1.083       .  S
C1043      C1044   1.402       .  A
C1043      H1052   1.084       .  S
C1044      C1050   1.402       .  A
C1044      C3253   1.413       .  A
C1045      C1047   1.403       .  A
C1045      C1046   1.403       .  A
C1045      C3252   1.413       .  A
C1046      H1053   1.084       .  S
C1047      C1048   1.399       .  A
C1047      H1054   1.084       .  S
C1048      C3257   1.405       .  A
C1048      H1055   1.083       .  S
C1049      C1050   1.407       .  A
C1049      C3256   1.405       .  A
C1050      H1056   1.084       .  S
C1057      C1058   1.407       .  A
C1057      C3270   1.406   1_455  A
C1058      C1059   1.397       .  A
C1058      H1067   1.083       .  S
C1059      C1060   1.401       .  A
C1059      H1068   1.084       .  S
C1060      C1066   1.404       .  A
C1060      C3269   1.414       .  A
C1061      C1063   1.401       .  A
C1061      C1062   1.405       .  A
C1061      C3268   1.414       .  A
C1062      C3265   1.406       .  A
C1062      H1069   1.084       .  S
C1063      C1064   1.397       .  A
C1063      H1070   1.084       .  S
C1064      C1065   1.407       .  A
C1064      H1071   1.083       .  S
C1065      C3274   1.405       .  A
C1066      C3273   1.405       .  A
C1066      H1072   1.084       .  S
C1073      C1078   1.405       .  A
C1073      C4386   1.408   1_445  A
C1074      C1075   1.396       .  A
C1074      C4385   1.408       .  A
C1074      H1083   1.083       .  S
C1075      C1076   1.400       .  A
C1075      H1084   1.084       .  S
C1076      C1082   1.406       .  A
C1076      C4389   1.415       .  A
C1077      C1079   1.400       .  A
C1077      C1078   1.406       .  A
C1077      C4388   1.415       .  A
C1078      H1085   1.084       .  S
C1079      C1080   1.397       .  A
C1079      H1086   1.084       .  S
C1080      C1081   1.407       .  A
C1080      H1087   1.083       .  S
C1081      C4394   1.405   1_455  A
C1082      C4393   1.405       .  A
C1082      H1088   1.084       .  S
C1089      C1090   1.407       .  A
C1089      C4406   1.406   1_445  A
C1090      C1091   1.397       .  A
C1090      H1099   1.083       .  S
C1091      C1092   1.401       .  A
C1091      H1100   1.084       .  S
C1092      C1098   1.408       .  A
C1092      C4405   1.416   1_445  A
C1093      C1095   1.402       .  A
C1093      C1094   1.409       .  A
C1093      C4404   1.416       .  A
C1094      C4401   1.406       .  A
C1094      H1101   1.084       .  S
C1095      C1096   1.399       .  A
C1095      H1102   1.084       .  S
C1096      C4409   1.406       .  A
C1096      H1103   1.083       .  S
C1097      C1098   1.405   1_655  A
C1097      C4408   1.406   1_545  A
C1098      H1104   1.084       .  S
O1105      V1113   1.911       .  S
O1105      C2219   1.268   1_565  A
O1106      V1113   1.912       .  S
O1106      C2220   1.268   1_565  A
O1107      C1117   1.263       .  A
O1108      V1113   1.892       .  S
O1108      C1118   1.263       .  A
O1109      C3326   1.267       .  A
O1110      V1114   1.905       .  S
O1110      C3325   1.267       .  A
O1111      V1114   1.895       .  S
O1111      C1116   1.263       .  A
O1112      V1114   1.892       .  S
O1112      C1115   1.263       .  A
V1113      V2218   2.086   1_565  T
V1114      V2217   2.086   1_455  T
C1115      O2209   1.268   1_455  A
C1115      C2185   1.481       .  S
C1116      O2210   1.268   1_455  A
C1116      C2193   1.482       .  S
C1117      O3318   1.267       .  A
C1117      C2169   1.480       .  S
C1118      O3317   1.267       .  A
C1118      C2153   1.480       .  S
O1119      V1127   1.906       .  S
O1119      C3337   1.267       .  A
O1120      V1127   1.906       .  S
O1120      C3338   1.267       .  A
O1121      V1127   1.886       .  S
O1121      C1131   1.262       .  A
O1122      V1127   1.887       .  S
O1122      C1132   1.261       .  A
O1123      V1128   1.911       .  S
O1123      C3340   1.269       .  A
O1124      V1128   1.913       .  S
O1124      C3339   1.267       .  A
O1125      V1128   1.895       .  S
O1125      C1130   1.264       .  A
O1126      V1128   1.891       .  S
O1126      C1129   1.262       .  A
V1127      V3336   2.086       .  T
V1128      V3335   2.086   1_455  T
C1129      O3327   1.267   1_455  A
C1129      C2145   1.479       .  S
C1130      O3328   1.267   1_455  A
C1130      C2161   1.481       .  S
C1131      O3332   1.267       .  A
C1131      C2137   1.476       .  S
C1132      O3331   1.269       .  A
C1132      C2113   1.480       .  S
O1133      C1143   1.268       .  A
O1134      V1141   1.910       .  S
O1134      C1144   1.267       .  A
O1135      V1141   1.889       .  S
O1135      C1145   1.263       .  A
O1136      V1141   1.889       .  S
O1136      C1146   1.262       .  A
O1137      V1142   1.910       .  S
O1138      V1142   1.912       .  S
O1139      C1144   1.264       .  A
O1140      V1142   1.897       .  S
O1140      C1143   1.264       .  A
C1143      C2057   1.484       .  S
C1144      C2065   1.483       .  S
C1145      C2105   1.479       .  S
C1146      C2089   1.479       .  S
O1147      V1155   1.911       .  S
O1147      C1157   1.268       .  A
O1148      V1155   1.905       .  S
O1148      C1158   1.267       .  A
O1149      V1155   1.894       .  S
O1149      C1159   1.263       .  A
O1150      V1155   1.894       .  S
O1150      C1160   1.263       .  A
O1151      V1156   1.909       .  S
O1151      C1160   1.268       .  A
O1152      V1156   1.912       .  S
O1152      C1159   1.267       .  A
O1153      V1156   1.899       .  S
O1153      C1158   1.264       .  A
O1154      V1156   1.895       .  S
O1154      C1157   1.264       .  A
V1155      V1156   2.086       .  T
C1157      C2049   1.485       .  S
C1158      C2073   1.482       .  S
C1159      C2033   1.480       .  S
C1160      C2017   1.483       .  S
O1161      V1169   1.912       .  S
O1162      V1169   1.912       .  S
O1162      C1172   1.267   1_455  A
O1163      V3377   1.898       .  S
O1163      C1173   1.264       .  A
O1164      V1169   1.892       .  S
O1164      C1174   1.263       .  A
O1165      V3378   1.904   1_455  S
O1166      V1170   1.899       .  S
O1167      V1170   1.897       .  S
O1167      C2276   1.264   1_565  A
O1168      V1170   1.897       .  S
O1168      C3379   1.264   1_565  A
V1169      O3371   1.898   1_455  S
V1169      V2274   2.086   1_455  T
V1170      O3373   1.904       .  S
V1170      V2273   2.086   1_565  T
C1171      O3376   1.264   1_545  A
C1171      C1977   1.487       .  S
C1172      O2271   1.264       .  A
C1172      C2201   1.481       .  S
C1173      C1993   1.479       .  S
C1174      C2001   1.478       .  S
O1175      V3391   1.894       .  S
O1175      C1185   1.264       .  A
O1176      V1183   1.894       .  S
O1176      C1186   1.263       .  A
O1177      V1183   1.914       .  S
O1177      C3395   1.268       .  A
O1178      V1183   1.912       .  S
O1178      C3396   1.268       .  A
O1179      V1184   1.889       .  S
O1179      C1188   1.262       .  A
O1180      V1184   1.886       .  S
O1180      C1187   1.262       .  A
O1181      V3392   1.904   1_455  S
O1181      C1186   1.266       .  A
O1182      V1184   1.905       .  S
O1182      C1185   1.266       .  A
V1183      O3383   1.894   1_455  S
V1183      V3392   2.085   1_455  T
V1184      O3389   1.904       .  S
V1184      V3391   2.085       .  T
C1185      C1937   1.480       .  S
C1186      C1961   1.479       .  S
C1187      O3385   1.268       .  A
C1187      C2129   1.480       .  S
C1188      O3386   1.268       .  A
C1188      C1921   1.482       .  S
O1189      V1197   1.895       .  S
O1190      V1197   1.897       .  S
O1191      V1197   1.908       .  S
O1191      C1201   1.267   1_565  A
O1192      V1197   1.910       .  S
O1193      V1198   1.893       .  S
O1193      C1202   1.263       .  A
O1194      V1198   1.894       .  S
O1195      V1198   1.901       .  S
O1195      C1200   1.265       .  A
O1196      V1198   1.901       .  S
O1196      C1199   1.266       .  A
C1199      C2009   1.478       .  S
C1200      C1985   1.480       .  S
C1201      C1905   1.482       .  S
C1202      C2097   1.475       .  S
O1203      V1211   1.904       .  S
O1203      C1213   1.266       .  A
O1204      V1211   1.901       .  S
O1204      C1214   1.266       .  A
O1205      V1211   1.902       .  S
O1205      C1215   1.265       .  A
O1206      V1211   1.902       .  S
O1206      C1216   1.265       .  A
O1207      V1212   1.905       .  S
O1207      C1216   1.266       .  A
O1208      V1212   1.905       .  S
O1208      C1215   1.266       .  A
O1209      V1212   1.897       .  S
O1209      C1214   1.264       .  A
O1210      V1212   1.894       .  S
O1210      C1213   1.264       .  A
V1211      V1212   2.086       .  T
C1213      C1953   1.479       .  S
C1214      C1945   1.480       .  S
C1215      C2041   1.483       .  S
C1216      C1889   1.485       .  S
O1217      V1225   1.889       .  S
O1217      C2331   1.262       .  A
O1218      V1225   1.890       .  S
O1218      C2332   1.262       .  A
O1219      C3437   1.267       .  A
O1220      V1225   1.909   1_565  S
O1220      C3438   1.268       .  A
O1221      C1230   1.262       .  A
O1222      V1226   1.895       .  S
O1222      C1229   1.264       .  A
O1223      V1226   1.910       .  S
O1223      C1228   1.268       .  A
O1224      V1226   1.909       .  S
O1224      C1227   1.267       .  A
V1225      V2330   2.086       .  T
V1226      V2329   2.086   1_455  T
C1227      O2321   1.262   1_455  A
C1227      C1873   1.477       .  S
C1228      O2322   1.262   1_455  A
C1228      C2177   1.481       .  S
C1229      O3427   1.267   1_455  A
C1229      C1865   1.483       .  S
C1230      O3428   1.268   1_455  A
C1230      C1841   1.480       .  S
O1231      V1239   1.894       .  S
O1231      C1241   1.263       .  A
O1232      V1239   1.890       .  S
O1232      C1242   1.262       .  A
O1233      V1239   1.912       .  S
O1233      C1243   1.267       .  A
O1234      V1239   1.913       .  S
O1234      C1244   1.268       .  A
O1235      V1240   1.886       .  S
O1235      C3452   1.261       .  A
O1236      V1240   1.887       .  S
O1236      C3451   1.262   1_455  A
O1237      V1240   1.909       .  S
O1237      C3450   1.268   1_455  A
O1238      V1240   1.910       .  S
O1238      C3449   1.268   1_455  A
V1239      V3448   2.086       .  T
V1240      V3447   2.086   1_455  T
C1241      O3446   1.268       .  A
C1241      C1857   1.484       .  S
C1242      O3445   1.268       .  A
C1242      C1849   1.480       .  S
C1243      O3444   1.262       .  A
C1243      C1833   1.477       .  S
C1244      O3443   1.261       .  A
C1244      C2121   1.481       .  S
O1245      V1253   1.910       .  S
O1245      C1255   1.267       .  A
O1246      V1253   1.909       .  S
O1246      C1256   1.267       .  A
O1247      C1257   1.263       .  A
O1248      V1253   1.898       .  S
O1248      C1258   1.264       .  A
O1249      C1258   1.267       .  A
O1250      V1254   1.910       .  S
O1250      C1257   1.267       .  A
O1251      V1254   1.889       .  S
O1252      V1254   1.889       .  S
C1256      C2081   1.478       .  S
C1257      C1777   1.483       .  S
C1258      C1801   1.483       .  S
O1259      V1267   1.895       .  S
O1259      C1269   1.263       .  A
O1260      V1267   1.896       .  S
O1260      C1270   1.264       .  A
O1261      V1267   1.910       .  S
O1261      C1271   1.268       .  A
O1262      V1267   1.910       .  S
O1262      C1272   1.266       .  A
O1263      V1268   1.887       .  S
O1263      C1272   1.261       .  A
O1264      V1268   1.890       .  S
O1264      C1271   1.262       .  A
O1265      V1268   1.907       .  S
O1265      C1270   1.267       .  A
O1266      V1268   1.910       .  S
O1266      C1269   1.268       .  A
V1267      V1268   2.085       .  T
C1269      C1785   1.484       .  S
C1270      C1793   1.483       .  S
C1271      C2025   1.482       .  S
C1272      C1769   1.471       .  S
O1273      C1283   1.266       .  A
O1274      V3489   1.907   1_455  S
O1274      C1284   1.267       .  A
O1275      V1281   1.893       .  S
O1275      C2389   1.264       .  A
O1276      V1281   1.892       .  S
O1276      C2390   1.263       .  A
O1277      V1282   1.906       .  S
O1277      C1286   1.266   1_465  A
O1278      V1282   1.907       .  S
O1278      C1285   1.266   1_465  A
O1279      C1284   1.263       .  A
O1280      V3490   1.895       .  S
O1280      C1283   1.264       .  A
V1281      O3482   1.907       .  S
V1281      V2386   2.085       .  T
V1282      O3488   1.895   1_455  S
V1282      V2385   2.085   1_465  T
C1283      C1713   1.481       .  S
C1284      C1729   1.480       .  S
C1285      O2379   1.264       .  A
C1285      C1745   1.481       .  S
C1286      O2380   1.263       .  A
C1286      C1881   1.474       .  S
O1287      V3503   1.909       .  S
O1287      C1297   1.268       .  A
O1288      V1295   1.906       .  S
O1288      C1298   1.267       .  A
O1289      V1295   1.890       .  S
O1289      C3507   1.262       .  A
O1290      V1295   1.891       .  S
O1290      C3508   1.262       .  A
O1291      V1296   1.909       .  S
O1291      C1300   1.268       .  A
O1292      V1296   1.910       .  S
O1292      C1299   1.266       .  A
O1293      V3504   1.892   1_455  S
O1293      C1298   1.263       .  A
O1294      V1296   1.890       .  S
O1294      C1297   1.262       .  A
V1295      O3495   1.909   1_455  S
V1295      V3504   2.086   1_455  T
V1296      O3501   1.892       .  S
V1296      V3503   2.086       .  T
C1297      C1665   1.480       .  S
C1298      C1681   1.480       .  S
C1299      O3497   1.262       .  A
C1299      C1825   1.473       .  S
C1300      O3498   1.262       .  A
C1300      C1697   1.480       .  S
O1301      V1309   1.894       .  S
O1301      C1311   1.263       .  A
O1302      C1312   1.262       .  A
O1303      V1309   1.911       .  S
O1303      C1313   1.266       .  A
O1304      V1309   1.910       .  S
O1304      C1314   1.268   1_565  A
O1305      V1310   1.890       .  S
O1306      V1310   1.888       .  S
O1307      V1310   1.909       .  S
O1307      C1312   1.268       .  A
O1308      C1311   1.267       .  A
C1311      C1689   1.480       .  S
C1312      C1673   1.479       .  S
C1313      C1809   1.472       .  S
C1314      C1649   1.481       .  S
O1315      V1323   1.903       .  S
O1315      C1325   1.265       .  A
O1316      V1323   1.903       .  S
O1316      C1326   1.267       .  A
O1317      V1323   1.891       .  S
O1317      C1327   1.263       .  A
O1318      V1323   1.896       .  S
O1318      C1328   1.264       .  A
O1319      V1324   1.907       .  S
O1319      C1328   1.267       .  A
O1320      V1324   1.906       .  S
O1320      C1327   1.266       .  A
O1321      V1324   1.893       .  S
O1321      C1326   1.263       .  A
O1322      V1324   1.892       .  S
O1322      C1325   1.264       .  A
V1323      V1324   2.086       .  T
C1325      C1761   1.477       .  S
C1326      C1641   1.479       .  S
C1327      C1737   1.477       .  S
C1328      C1721   1.482       .  S
O1329      V1337   1.902       .  S
O1329      C3547   1.266       .  A
O1330      V1337   1.903       .  S
O1330      C3548   1.265       .  A
O1331      V1337   1.902       .  S
O1331      C1341   1.266       .  A
O1332      V3545   1.899   1_455  S
O1332      C1342   1.264       .  A
O1333      V1338   1.907   1_455  S
O1334      V3546   1.905       .  S
O1335      V1338   1.906       .  S
O1336      V1338   1.906       .  S
V1337      O3540   1.899       .  S
V1337      V2442   2.085   1_565  T
V1338      O3542   1.905       .  S
V1338      V2441   2.085       .  T
C1339      O3537   1.266       .  A
C1339      C1969   1.486       .  S
C1340      O3538   1.265       .  A
C1340      C1625   1.481       .  S
C1341      C1585   1.485       .  S
C1342      C1601   1.484       .  S
O1343      V1351   1.905       .  S
O1343      C1353   1.266       .  A
O1344      V3559   1.902   1_455  S
O1344      C1354   1.266       .  A
O1345      V1351   1.906       .  S
O1345      C1355   1.266       .  A
O1346      V1351   1.905       .  S
O1346      C1356   1.267       .  A
O1347      V1352   1.897       .  S
O1347      C3564   1.264       .  A
O1348      V1352   1.896       .  S
O1348      C3563   1.264       .  A
O1349      V1352   1.898       .  S
O1349      C1354   1.264       .  A
O1350      V3560   1.893       .  S
O1350      C1353   1.264       .  A
V1351      O3552   1.902       .  S
V1351      V3560   2.086       .  T
V1352      O3558   1.893   1_455  S
V1352      V3559   2.086   1_455  T
C1353      C1537   1.479       .  S
C1354      C1553   1.481       .  S
C1355      O3556   1.264       .  A
C1355      C1569   1.478       .  S
C1356      O3555   1.264       .  A
C1356      C1929   1.482       .  S
O1357      V1365   1.907       .  S
O1357      C1367   1.267   1_565  A
O1358      V1365   1.905       .  S
O1358      C1368   1.266   1_565  A
O1359      V1365   1.898       .  S
O1359      C1369   1.265   1_565  A
O1360      V1365   1.899       .  S
O1360      C1370   1.264   1_565  A
O1361      V1366   1.904       .  S
O1362      V1366   1.905       .  S
O1363      V1366   1.903       .  S
O1364      V1366   1.898       .  S
C1367      C1609   1.484       .  S
C1368      C1593   1.486       .  S
C1369      C1521   1.479       .  S
C1370      C1913   1.482   1_545  S
O1371      V1379   1.898       .  S
O1371      C1381   1.264       .  A
O1372      V1379   1.897       .  S
O1372      C1382   1.264       .  A
O1373      V1379   1.903       .  S
O1373      C1383   1.266       .  A
O1374      V1379   1.905       .  S
O1374      C1384   1.266       .  A
O1375      V1380   1.896       .  S
O1375      C1384   1.264       .  A
O1376      V1380   1.894       .  S
O1376      C1383   1.263       .  A
O1377      V1380   1.908       .  S
O1377      C1382   1.266       .  A
O1378      V1380   1.908       .  S
O1378      C1381   1.267       .  A
V1379      V1380   2.085       .  T
C1381      C1897   1.485       .  S
C1382      C1505   1.481       .  S
C1383      C1545   1.479       .  S
C1384      C1561   1.481       .  S
O1385      C1395   1.265       .  A
O1386      V3601   1.897   1_455  S
O1386      C1396   1.264       .  A
O1387      V1393   1.902       .  S
O1388      V1393   1.900       .  S
O1389      V1394   1.902       .  S
O1389      C3606   1.265   1_565  A
O1390      V1394   1.905       .  S
O1390      C3605   1.266   1_465  A
O1391      C1396   1.266       .  A
O1392      V3602   1.899       .  S
O1392      C1395   1.265       .  A
V1393      O3594   1.897       .  S
V1393      V2498   2.086       .  T
V1394      O3600   1.899   1_455  S
V1394      V2497   2.086   1_465  T
C1395      C1473   1.479       .  S
C1396      C1489   1.481       .  S
C1397      O3598   1.266   1_545  A
C1397      C1617   1.480       .  S
C1398      O3597   1.265   1_545  A
C1398      C1753   1.482       .  S
O1399      V1407   1.909       .  S
O1399      C1409   1.268       .  A
O1400      V3615   1.910   1_455  S
O1400      C1410   1.268       .  A
O1401      V1407   1.890       .  S
O1401      C3619   1.262       .  A
O1402      V1407   1.890       .  S
O1402      C3620   1.262       .  A
O1403      V1408   1.910       .  S
O1403      C1412   1.268   1_455  A
O1404      V1408   1.911       .  S
O1404      C1411   1.267   1_455  A
O1405      V1408   1.891       .  S
O1405      C1410   1.263       .  A
O1406      V3616   1.890       .  S
O1406      C1409   1.262       .  A
V1407      O3608   1.910       .  S
V1407      V3616   2.086       .  T
V1408      O3614   1.890   1_455  S
V1408      V3615   2.086   1_455  T
C1409      C1449   1.480       .  S
C1410      C1465   1.481       .  S
C1411      O3609   1.262       .  A
C1411      C1577   1.479       .  S
C1412      O3610   1.262       .  A
C1412      C3913   1.481       .  S
O1413      C1423   1.263       .  A
O1414      V1421   1.888       .  S
O1414      C1424   1.262       .  A
O1415      V1421   1.913       .  S
O1416      V1421   1.913       .  S
O1417      V1422   1.888       .  S
O1417      C1426   1.262       .  A
O1418      V1422   1.889       .  S
O1418      C1425   1.262       .  A
O1419      C1424   1.268       .  A
O1420      V1422   1.909       .  S
O1420      C1423   1.268       .  A
C1423      C1457   1.482       .  S
C1424      C1441   1.480       .  S
C1425      C1529   1.478       .  S
C1426      C1657   1.481   1_565  S
O1427      V1435   1.899       .  S
O1427      C1437   1.265       .  A
O1428      V1435   1.898       .  S
O1428      C1438   1.264       .  A
O1429      V1435   1.910       .  S
O1429      C1439   1.266       .  A
O1430      V1435   1.907       .  S
O1430      C1440   1.267       .  A
O1431      V1436   1.890       .  S
O1431      C1440   1.263       .  A
O1432      V1436   1.892       .  S
O1432      C1439   1.263       .  A
O1433      V1436   1.902       .  S
O1433      C1438   1.266       .  A
O1434      V1436   1.898       .  S
O1434      C1437   1.265       .  A
V1435      V1436   2.086       .  T
C1437      C1481   1.479       .  S
C1438      C1497   1.481       .  S
C1439      C1513   1.477       .  S
C1440      C1633   1.479       .  S
C1441      C1442   1.405       .  A
C1441      C1446   1.408       .  A
C1442      C1443   1.399       .  A
C1442      H1451   1.083       .  S
C1443      C1444   1.404       .  A
C1443      H1452   1.084       .  S
C1444      C1450   1.403       .  A
C1444      C1445   1.412       .  A
C1445      C1447   1.403       .  A
C1445      C1446   1.402       .  A
C1446      H1453   1.085       .  S
C1447      C1448   1.398       .  A
C1447      H1454   1.084       .  S
C1448      C1449   1.404       .  A
C1448      H1455   1.083       .  S
C1449      C1450   1.409       .  A
C1450      H1456   1.084       .  S
C1457      C1458   1.408       .  A
C1457      C1462   1.405       .  A
C1458      C1459   1.397       .  A
C1458      H1467   1.083       .  S
C1459      C1460   1.400       .  A
C1459      H1468   1.084       .  S
C1460      C1466   1.406       .  A
C1460      C1461   1.415       .  A
C1461      C1463   1.400       .  A
C1461      C1462   1.405       .  A
C1462      H1469   1.084       .  S
C1463      C1464   1.396       .  A
C1463      H1470   1.084       .  S
C1464      C1465   1.408       .  A
C1464      H1471   1.083       .  S
C1465      C1466   1.406       .  A
C1466      H1472   1.084       .  S
C1473      C1474   1.406       .  A
C1473      C1478   1.406       .  A
C1474      C1475   1.397       .  A
C1474      H1483   1.083       .  S
C1475      C1476   1.402       .  A
C1475      H1484   1.084       .  S
C1476      C1482   1.403       .  A
C1476      C1477   1.414       .  A
C1477      C1479   1.401       .  A
C1477      C1478   1.403       .  A
C1478      H1485   1.084       .  S
C1479      C1480   1.397       .  A
C1479      H1486   1.084       .  S
C1480      C1481   1.406       .  A
C1480      H1487   1.083       .  S
C1481      C1482   1.407       .  A
C1482      H1488   1.084       .  S
C1489      C1490   1.406       .  A
C1489      C1494   1.406       .  A
C1490      C1491   1.397       .  A
C1490      H1499   1.083       .  S
C1491      C1492   1.402       .  A
C1491      H1500   1.084       .  S
C1492      C1498   1.405       .  A
C1492      C1493   1.414       .  A
C1493      C1495   1.401       .  A
C1493      C1494   1.404       .  A
C1494      H1501   1.084       .  S
C1495      C1496   1.397       .  A
C1495      H1502   1.084       .  S
C1496      C1497   1.406       .  A
C1496      H1503   1.083       .  S
C1497      C1498   1.407       .  A
C1498      H1504   1.084       .  S
C1505      C1506   1.406       .  A
C1505      C1510   1.404       .  A
C1506      C1507   1.402       .  A
C1506      H1515   1.083       .  S
C1507      C1508   1.404       .  A
C1507      H1516   1.083       .  S
C1508      C1514   1.409       .  A
C1508      C1509   1.415       .  A
C1509      C1511   1.400       .  A
C1509      C1510   1.402       .  A
C1510      H1517   1.084       .  S
C1511      C1512   1.394       .  A
C1511      H1518   1.084       .  S
C1512      C1513   1.405       .  A
C1512      H1519   1.083       .  S
C1513      C1514   1.407       .  A
C1514      H1520   1.084       .  S
C1521      C1526   1.404   1_545  A
C1522      C1523   1.401       .  A
C1522      H1531   1.083       .  S
C1523      C1524   1.404       .  A
C1523      H1532   1.083       .  S
C1524      C1530   1.409       .  A
C1525      C1527   1.400       .  A
C1525      C1526   1.402       .  A
C1526      H1533   1.084       .  S
C1527      C1528   1.394       .  A
C1527      H1534   1.084       .  S
C1528      C1529   1.406       .  A
C1528      H1535   1.083       .  S
C1530      H1536   1.084       .  S
C1537      C1538   1.406       .  A
C1537      C1542   1.406       .  A
C1538      C1539   1.399       .  A
C1538      H1547   1.083       .  S
C1539      C1540   1.404       .  A
C1539      H1548   1.084       .  S
C1540      C1546   1.404       .  A
C1540      C1541   1.413       .  A
C1541      C1543   1.401       .  A
C1541      C1542   1.400       .  A
C1542      H1549   1.084       .  S
C1543      C1544   1.396       .  A
C1543      H1550   1.084       .  S
C1544      C1545   1.405       .  A
C1544      H1551   1.083       .  S
C1545      C1546   1.409       .  A
C1546      H1552   1.084       .  S
C1553      C1554   1.407       .  A
C1553      C1558   1.406       .  A
C1554      C1555   1.398       .  A
C1554      H1563   1.083       .  S
C1555      C1556   1.402       .  A
C1555      H1564   1.084       .  S
C1556      C1562   1.406       .  A
C1556      C1557   1.414       .  A
C1557      C1559   1.400       .  A
C1557      C1558   1.404       .  A
C1558      H1565   1.084       .  S
C1559      C1560   1.396       .  A
C1559      H1566   1.084       .  S
C1560      C1561   1.407       .  A
C1560      H1567   1.083       .  S
C1561      C1562   1.407       .  A
C1562      H1568   1.084       .  S
C1569      C3778   1.405       .  A
C1569      C1574   1.404       .  A
C1570      C3777   1.405       .  A
C1570      C1571   1.401       .  A
C1570      H1579   1.083       .  S
C1571      C1572   1.404       .  A
C1571      H1580   1.083       .  S
C1572      C1578   1.408       .  A
C1572      C3781   1.414       .  A
C1573      C3780   1.414       .  A
C1573      C1575   1.400       .  A
C1573      C1574   1.401       .  A
C1574      H1581   1.085       .  S
C1575      C1576   1.394       .  A
C1575      H1582   1.084       .  S
C1576      C3785   1.406       .  A
C1576      H1583   1.083       .  S
C1577      C3784   1.406       .  A
C1577      C1578   1.407   1_655  A
C1578      H1584   1.084       .  S
C1585      C1586   1.407       .  A
C1586      C1587   1.398       .  A
C1586      H1595   1.083       .  S
C1587      C1588   1.402       .  A
C1587      H1596   1.084       .  S
C1588      C1594   1.407       .  A
C1589      C1591   1.402       .  A
C1589      C1590   1.407       .  A
C1590      H1597   1.084       .  S
C1591      C1592   1.399       .  A
C1591      H1598   1.084       .  S
C1592      H1599   1.083       .  S
C1593      C1594   1.408   1_545  A
C1594      H1600   1.084       .  S
C1601      C1602   1.407       .  A
C1602      C1603   1.398       .  A
C1602      H1611   1.083       .  S
C1603      C1604   1.402       .  A
C1603      H1612   1.084       .  S
C1604      C1610   1.407       .  A
C1605      C1607   1.401       .  A
C1605      C1606   1.406       .  A
C1606      H1613   1.084       .  S
C1607      C1608   1.397       .  A
C1607      H1614   1.084       .  S
C1608      H1615   1.083       .  S
C1609      C1610   1.407   1_545  A
C1610      H1616   1.084       .  S
C1617      C1618   1.405       .  A
C1617      C2726   1.407   1_545  A
C1618      C1619   1.399       .  A
C1618      H1627   1.083       .  S
C1619      C1620   1.403       .  A
C1619      H1628   1.083       .  S
C1620      C1626   1.407       .  A
C1620      C2725   1.415   1_545  A
C1621      C2724   1.415       .  A
C1621      C1623   1.403       .  A
C1621      C1622   1.407       .  A
C1622      C2721   1.407       .  A
C1622      H1629   1.084       .  S
C1623      C1624   1.399       .  A
C1623      H1630   1.084       .  S
C1624      H1631   1.083       .  S
C1625      C3834   1.406   1_565  A
C1626      C3833   1.406   1_545  A
C1626      H1632   1.084       .  S
C1633      C1634   1.407       .  A
C1633      C1638   1.406       .  A
C1634      C1635   1.394       .  A
C1634      H1643   1.083       .  S
C1635      C1636   1.399       .  A
C1635      H1644   1.084       .  S
C1636      C1642   1.402       .  A
C1636      C1637   1.414       .  A
C1637      C1639   1.402       .  A
C1637      C1638   1.406       .  A
C1638      H1645   1.084       .  S
C1639      C1640   1.398       .  A
C1639      H1646   1.084       .  S
C1640      C1641   1.407       .  A
C1640      H1647   1.083       .  S
C1641      C1642   1.404       .  A
C1642      H1648   1.084       .  S
C1649      C1654   1.404   1_545  A
C1650      C1651   1.397       .  A
C1650      H1659   1.083       .  S
C1651      C1652   1.400       .  A
C1651      H1660   1.084       .  S
C1652      C1658   1.407       .  A
C1653      C1655   1.399       .  A
C1653      C1654   1.405       .  A
C1654      H1661   1.084       .  S
C1655      C1656   1.395       .  A
C1655      H1662   1.084       .  S
C1656      C1657   1.408   1_565  A
C1656      H1663   1.083       .  S
C1658      H1664   1.084       .  S
C1665      C1666   1.408       .  A
C1665      C1670   1.404       .  A
C1666      C1667   1.396       .  A
C1666      H1675   1.083       .  S
C1667      C1668   1.400       .  A
C1667      H1676   1.084       .  S
C1668      C1674   1.405       .  A
C1668      C1669   1.415       .  A
C1669      C1671   1.400       .  A
C1669      C1670   1.404       .  A
C1670      H1677   1.084       .  S
C1671      C1672   1.395       .  A
C1671      H1678   1.084       .  S
C1672      C1673   1.407       .  A
C1672      H1679   1.083       .  S
C1673      C1674   1.405       .  A
C1674      H1680   1.084       .  S
C1681      C1682   1.405       .  A
C1681      C1686   1.407       .  A
C1682      C1683   1.399       .  A
C1682      H1691   1.083       .  S
C1683      C1684   1.403       .  A
C1683      H1692   1.084       .  S
C1684      C1690   1.404       .  A
C1684      C1685   1.412       .  A
C1685      C1687   1.402       .  A
C1685      C1686   1.402       .  A
C1686      H1693   1.084       .  S
C1687      C1688   1.397       .  A
C1687      H1694   1.084       .  S
C1688      C1689   1.405       .  A
C1688      H1695   1.083       .  S
C1689      C1690   1.409       .  A
C1690      H1696   1.084       .  S
C1697      C3906   1.407       .  A
C1697      C1702   1.405       .  A
C1698      C3905   1.407       .  A
C1698      C1699   1.396       .  A
C1698      H1707   1.083       .  S
C1699      C1700   1.400       .  A
C1699      H1708   1.084       .  S
C1700      C1706   1.405       .  A
C1700      C3909   1.415   1_455  A
C1701      C3908   1.415       .  A
C1701      C1703   1.400       .  A
C1701      C1702   1.405       .  A
C1702      H1709   1.084       .  S
C1703      C1704   1.396       .  A
C1703      H1710   1.084       .  S
C1704      C1705   1.408       .  A
C1704      H1711   1.083       .  S
C1705      C3620   1.481       .  S
C1705      C3914   1.405       .  A
C1706      C3913   1.405   1_455  A
C1706      H1712   1.084       .  S
C1713      C1714   1.407       .  A
C1713      C1718   1.406       .  A
C1714      C1715   1.396       .  A
C1714      H1723   1.083       .  S
C1715      C1716   1.401       .  A
C1715      H1724   1.084       .  S
C1716      C1722   1.405       .  A
C1716      C1717   1.414       .  A
C1717      C1719   1.401       .  A
C1717      C1718   1.406       .  A
C1718      H1725   1.084       .  S
C1719      C1720   1.398       .  A
C1719      H1726   1.084       .  S
C1720      C1721   1.407       .  A
C1720      H1727   1.083       .  S
C1721      C1722   1.406       .  A
C1722      H1728   1.084       .  S
C1729      C1730   1.405       .  A
C1729      C1734   1.408       .  A
C1730      C1731   1.398       .  A
C1730      H1739   1.083       .  S
C1731      C1732   1.403       .  A
C1731      H1740   1.084       .  S
C1732      C1738   1.402       .  A
C1732      C1733   1.412       .  A
C1733      C1735   1.403       .  A
C1733      C1734   1.402       .  A
C1734      H1741   1.084       .  S
C1735      C1736   1.398       .  A
C1735      H1742   1.084       .  S
C1736      C1737   1.404       .  A
C1736      H1743   1.083       .  S
C1737      C1738   1.407       .  A
C1738      H1744   1.084       .  S
C1745      C3954   1.407       .  A
C1746      C3953   1.407       .  A
C1746      C1747   1.395       .  A
C1746      H1755   1.083       .  S
C1747      C1748   1.400       .  A
C1747      H1756   1.084       .  S
C1748      C1754   1.402       .  A
C1748      C2853   1.414   1_545  A
C1749      C2852   1.414   1_455  A
C1749      C1751   1.403       .  A
C1749      C1750   1.407       .  A
C1750      H1757   1.084       .  S
C1751      C1752   1.400       .  A
C1751      H1758   1.084       .  S
C1752      C2857   1.407       .  A
C1752      H1759   1.083       .  S
C1753      C2856   1.407   1_545  A
C1753      C1754   1.405       .  A
C1754      H1760   1.084       .  S
C1761      C1762   1.406       .  A
C1761      C1766   1.404       .  A
C1762      C1763   1.400       .  A
C1762      H1771   1.083       .  S
C1763      C1764   1.403   1_556  A
C1763      H1772   1.084       .  S
C1764      C1770   1.407       .  A
C1764      C1765   1.415   1_554  A
C1765      C1767   1.399   1_556  A
C1765      C1766   1.400       .  A
C1766      H1773   1.084       .  S
C1767      C1768   1.393       .  A
C1767      H1774   1.084       .  S
C1768      C1769   1.404       .  A
C1768      H1775   1.083       .  S
C1769      C1770   1.404       .  A
C1770      H1776   1.084       .  S
C1777      C1778   1.407       .  A
C1777      C1782   1.407       .  A
C1778      C1779   1.397       .  A
C1778      H1787   1.083       .  S
C1779      C1780   1.400       .  A
C1779      H1788   1.084       .  S
C1780      C1786   1.406       .  A
C1780      C1781   1.415       .  A
C1781      C1783   1.401       .  A
C1781      C1782   1.407       .  A
C1782      H1789   1.084       .  S
C1783      C1784   1.398       .  A
C1783      H1790   1.084       .  S
C1784      C1785   1.408       .  A
C1784      H1791   1.083       .  S
C1785      C1786   1.406       .  A
C1786      H1792   1.084       .  S
C1793      C1794   1.407       .  A
C1793      C1798   1.407       .  A
C1794      C1795   1.397       .  A
C1794      H1803   1.083       .  S
C1795      C1796   1.401       .  A
C1795      H1804   1.084       .  S
C1796      C1802   1.405       .  A
C1796      C1797   1.414       .  A
C1797      C1799   1.401       .  A
C1797      C1798   1.406       .  A
C1798      H1805   1.084       .  S
C1799      C1800   1.398       .  A
C1799      H1806   1.084       .  S
C1800      C1801   1.407       .  A
C1800      H1807   1.083       .  S
C1801      C1802   1.406       .  A
C1802      H1808   1.084       .  S
C1809      C1810   1.403       .  A
C1810      C1811   1.392       .  A
C1810      H1819   1.084       .  S
C1811      C1812   1.400   1_556  A
C1811      H1820   1.084       .  S
C1812      C1818   1.399       .  A
C1813      C1815   1.405   1_556  A
C1813      C1814   1.409       .  A
C1814      H1821   1.084       .  S
C1815      C1816   1.402       .  A
C1815      H1822   1.083       .  S
C1816      H1823   1.083       .  S
C1817      C1818   1.404       .  A
C1818      H1824   1.085       .  S
C1825      C4034   1.404       .  A
C1825      C1830   1.406       .  A
C1826      C4033   1.404       .  A
C1826      C1827   1.393       .  A
C1826      H1835   1.084       .  S
C1827      C1828   1.400   1_556  A
C1827      H1836   1.084   1_556  S
C1828      C1834   1.400       .  A
C1828      C4037   1.414   1_454  A
C1829      C4036   1.414   1_556  A
C1829      C1831   1.405   1_556  A
C1829      C1830   1.408       .  A
C1830      H1837   1.084       .  S
C1831      C1832   1.402       .  A
C1831      H1838   1.083   1_554  S
C1832      C1833   1.404       .  A
C1832      H1839   1.083       .  S
C1833      C4042   1.405       .  A
C1834      C4041   1.405   1_455  A
C1834      H1840   1.085       .  S
C1841      C1842   1.407       .  A
C1841      C4054   1.405   1_455  A
C1842      C1843   1.396       .  A
C1842      H1851   1.083       .  S
C1843      C1844   1.400       .  A
C1843      H1852   1.084       .  S
C1844      C1850   1.405       .  A
C1844      C4053   1.415   1_455  A
C1845      C4052   1.415       .  A
C1845      C1847   1.400       .  A
C1845      C1846   1.405       .  A
C1846      C4049   1.405       .  A
C1846      H1853   1.084       .  S
C1847      C1848   1.396       .  A
C1847      H1854   1.084       .  S
C1848      C1849   1.408       .  A
C1848      H1855   1.083       .  S
C1849      C4058   1.404       .  A
C1850      C4057   1.404   1_455  A
C1850      H1856   1.084       .  S
C1857      C1858   1.408       .  A
C1857      C4070   1.406       .  A
C1858      C1859   1.397       .  A
C1858      H1867   1.083       .  S
C1859      C1860   1.401       .  A
C1859      H1868   1.084       .  S
C1860      C1866   1.406       .  A
C1860      C4069   1.415       .  A
C1861      C4068   1.415   1_455  A
C1861      C1863   1.401       .  A
C1861      C1862   1.407       .  A
C1862      C4065   1.406   1_455  A
C1862      H1869   1.084       .  S
C1863      C1864   1.398       .  A
C1863      H1870   1.084       .  S
C1864      C1865   1.408       .  A
C1864      H1871   1.083       .  S
C1865      C4074   1.406   1_455  A
C1866      C4073   1.406       .  A
C1866      H1872   1.084       .  S
C1873      C1874   1.405       .  A
C1873      C2982   1.405   1_455  A
C1874      C1875   1.400       .  A
C1874      H1883   1.083       .  S
C1875      C1876   1.404   1_554  A
C1875      H1884   1.084   1_554  S
C1876      C1882   1.406       .  A
C1876      C2981   1.414   1_456  A
C1877      C2980   1.414   1_554  A
C1877      C1879   1.401   1_554  A
C1877      C1878   1.400       .  A
C1878      C2977   1.405       .  A
C1878      H1885   1.085       .  S
C1879      C1880   1.394       .  A
C1879      H1886   1.084   1_556  S
C1880      C4089   1.404       .  A
C1880      H1887   1.083       .  S
C1881      C4088   1.404       .  A
C1882      H1888   1.084       .  S
C1889      C1890   1.406       .  A
C1889      C1894   1.408       .  A
C1890      C1891   1.399       .  A
C1890      H1899   1.083       .  S
C1891      C1892   1.402       .  A
C1891      H1900   1.084       .  S
C1892      C1898   1.407       .  A
C1892      C1893   1.414       .  A
C1893      C1895   1.402       .  A
C1893      C1894   1.406       .  A
C1894      H1901   1.084       .  S
C1895      C1896   1.398       .  A
C1895      H1902   1.084       .  S
C1896      C1897   1.407       .  A
C1896      H1903   1.083       .  S
C1897      C1898   1.407       .  A
C1898      H1904   1.084       .  S
C1905      C1910   1.407   1_545  A
C1906      C1907   1.396       .  A
C1906      H1915   1.083       .  S
C1907      C1908   1.400       .  A
C1907      H1916   1.084       .  S
C1908      C1914   1.404       .  A
C1909      C1911   1.402       .  A
C1909      C1910   1.407       .  A
C1910      H1917   1.084       .  S
C1911      C1912   1.399       .  A
C1911      H1918   1.084       .  S
C1912      C1913   1.407       .  A
C1912      H1919   1.083       .  S
C1914      H1920   1.084       .  S
C1921      C1922   1.408       .  A
C1921      C4134   1.406       .  A
C1922      C1923   1.395       .  A
C1922      H1931   1.083       .  S
C1923      C1924   1.400       .  A
C1923      H1932   1.084       .  S
C1924      C1930   1.405       .  A
C1924      C4133   1.415       .  A
C1925      C4132   1.415       .  A
C1925      C1927   1.401       .  A
C1925      C1926   1.407       .  A
C1926      C4129   1.406       .  A
C1926      H1933   1.084       .  S
C1927      C1928   1.398       .  A
C1927      H1934   1.084       .  S
C1928      C4137   1.407       .  A
C1928      H1935   1.083       .  S
C1929      C4136   1.407       .  A
C1929      C1930   1.405       .  A
C1930      H1936   1.084       .  S
C1937      C1938   1.407       .  A
C1937      C1942   1.406       .  A
C1938      C1939   1.396       .  A
C1938      H1947   1.083       .  S
C1939      C1940   1.400       .  A
C1939      H1948   1.084       .  S
C1940      C1946   1.403       .  A
C1940      C1941   1.414       .  A
C1941      C1943   1.401       .  A
C1941      C1942   1.405       .  A
C1942      H1949   1.084       .  S
C1943      C1944   1.397       .  A
C1943      H1950   1.084       .  S
C1944      C1945   1.407       .  A
C1944      H1951   1.083       .  S
C1945      C1946   1.405       .  A
C1946      H1952   1.084       .  S
C1953      C1954   1.405       .  A
C1953      C1958   1.407       .  A
C1954      C1955   1.398       .  A
C1954      H1963   1.083       .  S
C1955      C1956   1.403       .  A
C1955      H1964   1.084       .  S
C1956      C1962   1.403       .  A
C1956      C1957   1.413       .  A
C1957      C1959   1.402       .  A
C1957      C1958   1.402       .  A
C1958      H1965   1.084       .  S
C1959      C1960   1.397       .  A
C1959      H1966   1.084       .  S
C1960      C1961   1.405       .  A
C1960      H1967   1.083       .  S
C1961      C1962   1.408       .  A
C1962      H1968   1.084       .  S
C1969      C4178   1.406       .  A
C1970      C4177   1.406       .  A
C1970      C1971   1.397       .  A
C1970      H1979   1.083       .  S
C1971      C1972   1.402       .  A
C1971      H1980   1.084       .  S
C1972      C1978   1.405       .  A
C1972      C3077   1.413   1_565  A
C1973      C3076   1.413       .  A
C1973      C1975   1.404   1_655  A
C1973      C1974   1.409       .  A
C1974      H1981   1.084   1_655  S
C1975      C1976   1.402       .  A
C1975      H1982   1.084       .  S
C1976      H1983   1.083       .  S
C1977      C4186   1.409   1_545  A
C1978      C4185   1.409   1_565  A
C1978      H1984   1.084       .  S
C1985      C1986   1.406       .  A
C1986      C1987   1.399       .  A
C1986      H1995   1.083       .  S
C1987      C1988   1.403       .  A
C1987      H1996   1.084       .  S
C1988      C1994   1.404       .  A
C1989      C1991   1.401       .  A
C1989      C1990   1.402       .  A
C1990      H1997   1.084       .  S
C1991      C1992   1.395       .  A
C1991      H1998   1.084       .  S
C1992      H1999   1.083       .  S
C1993      C1994   1.408       .  A
C1994      H2000   1.084       .  S
C2001      C2002   1.406       .  A
C2002      C2003   1.395       .  A
C2002      H2011   1.083       .  S
C2003      C2004   1.400       .  A
C2003      H2012   1.084       .  S
C2004      C2010   1.402       .  A
C2005      C2007   1.401       .  A
C2005      C2006   1.404       .  A
C2006      H2013   1.084       .  S
C2007      C2008   1.397       .  A
C2007      H2014   1.084       .  S
C2008      H2015   1.083       .  S
C2009      C2010   1.405       .  A
C2010      H2016   1.084       .  S
C2017      C2018   1.405       .  A
C2017      C2022   1.409       .  A
C2018      C2019   1.398       .  A
C2018      H2027   1.083       .  S
C2019      C2020   1.403       .  A
C2019      H2028   1.084       .  S
C2020      C2026   1.403       .  A
C2020      C2021   1.412       .  A
C2021      C2023   1.404       .  A
C2021      C2022   1.404       .  A
C2022      H2029   1.084       .  S
C2023      C2024   1.399       .  A
C2023      H2030   1.084       .  S
C2024      C2025   1.405       .  A
C2024      H2031   1.083       .  S
C2025      C2026   1.409       .  A
C2026      H2032   1.084       .  S
C2033      C2034   1.406       .  A
C2033      C2038   1.406       .  A
C2034      C2035   1.397       .  A
C2034      H2043   1.083       .  S
C2035      C2036   1.401       .  A
C2035      H2044   1.084       .  S
C2036      C2042   1.406       .  A
C2036      C2037   1.415       .  A
C2037      C2039   1.402       .  A
C2037      C2038   1.409       .  A
C2038      H2045   1.084       .  S
C2039      C2040   1.400       .  A
C2039      H2046   1.084       .  S
C2040      C2041   1.406       .  A
C2040      H2047   1.083       .  S
C2041      C2042   1.406       .  A
C2042      H2048   1.084       .  S
C2049      C2050   1.407       .  A
C2049      C2054   1.408       .  A
C2050      C2051   1.396       .  A
C2050      H2059   1.083       .  S
C2051      C2052   1.400       .  A
C2051      H2060   1.084       .  S
C2052      C2058   1.406       .  A
C2052      C2053   1.414       .  A
C2053      C2055   1.402       .  A
C2053      C2054   1.408       .  A
C2054      H2061   1.084       .  S
C2055      C2056   1.399       .  A
C2055      H2062   1.084       .  S
C2056      C2057   1.408       .  A
C2056      H2063   1.083       .  S
C2057      C2058   1.406       .  A
C2058      H2064   1.084       .  S
C2065      C2066   1.407       .  A
C2065      C2070   1.408       .  A
C2066      C2067   1.396       .  A
C2066      H2075   1.083       .  S
C2067      C2068   1.400       .  A
C2067      H2076   1.084       .  S
C2068      C2074   1.404       .  A
C2068      C2069   1.414       .  A
C2069      C2071   1.403       .  A
C2069      C2070   1.408       .  A
C2070      H2077   1.084       .  S
C2071      C2072   1.400       .  A
C2071      H2078   1.084       .  S
C2072      C2073   1.407       .  A
C2072      H2079   1.083       .  S
C2073      C2074   1.405       .  A
C2074      H2080   1.084       .  S
C2081      C2086   1.404       .  A
C2082      C2083   1.395       .  A
C2082      H2091   1.083       .  S
C2083      C2084   1.400       .  A
C2083      H2092   1.084       .  S
C2084      C2090   1.405       .  A
C2085      C2087   1.400       .  A
C2085      C2086   1.405       .  A
C2086      H2093   1.084       .  S
C2087      C2088   1.396       .  A
C2087      H2094   1.084       .  S
C2088      C2089   1.407       .  A
C2088      H2095   1.083       .  S
C2090      H2096   1.084       .  S
C2097      C2098   1.403       .  A
C2098      C2099   1.393       .  A
C2098      H2107   1.083       .  S
C2099      C2100   1.400       .  A
C2099      H2108   1.084       .  S
C2100      C2106   1.399       .  A
C2101      C2103   1.406       .  A
C2101      C2102   1.410       .  A
C2102      H2109   1.084       .  S
C2103      C2104   1.403       .  A
C2103      H2110   1.083       .  S
C2104      H2111   1.083       .  S
C2105      C2106   1.404       .  A
C2106      H2112   1.085       .  S
C2113      C2114   1.408       .  A
C2113      C4326   1.404       .  A
C2114      C2115   1.397       .  A
C2114      H2123   1.083       .  S
C2115      C2116   1.400       .  A
C2115      H2124   1.084       .  S
C2116      C2122   1.406       .  A
C2116      C4325   1.416       .  A
C2117      C4324   1.416   1_455  A
C2117      C2119   1.399       .  A
C2117      C2118   1.404       .  A
C2118      C4321   1.404       .  A
C2118      H2125   1.084       .  S
C2119      C2120   1.395       .  A
C2119      H2126   1.084       .  S
C2120      C4329   1.408       .  A
C2120      H2127   1.083       .  S
C2121      C4328   1.408       .  A
C2121      C2122   1.405       .  A
C2122      H2128   1.084       .  S
C2129      C2130   1.406       .  A
C2129      C4342   1.409       .  A
C2130      C2131   1.391       .  A
C2130      H2139   1.083       .  S
C2131      C2132   1.398       .  A
C2131      H2140   1.084       .  S
C2132      C2138   1.398       .  A
C2132      C4341   1.414       .  A
C2133      C4340   1.414       .  A
C2133      C2135   1.406       .  A
C2133      C2134   1.409       .  A
C2134      C4337   1.409       .  A
C2134      H2141   1.084       .  S
C2135      C2136   1.403       .  A
C2135      H2142   1.083       .  S
C2136      C4345   1.404       .  A
C2136      H2143   1.083       .  S
C2137      C4344   1.404       .  A
C2137      C2138   1.403       .  A
C2138      H2144   1.085       .  S
C2145      C4354   1.404   1_455  A
C2145      C2150   1.408       .  A
C2146      C4353   1.404       .  A
C2146      C2147   1.397       .  A
C2146      H2155   1.083       .  S
C2147      C2148   1.402       .  A
C2147      H2156   1.084       .  S
C2148      C2154   1.402       .  A
C2148      C4357   1.413       .  A
C2149      C4356   1.413       .  A
C2149      C2151   1.403       .  A
C2149      C2150   1.403       .  A
C2150      H2157   1.084       .  S
C2151      C2152   1.399       .  A
C2151      H2158   1.084       .  S
C2152      C4361   1.405       .  A
C2152      H2159   1.083       .  S
C2153      C4360   1.405       .  A
C2153      C2154   1.407       .  A
C2154      H2160   1.084       .  S
C2161      C2162   1.407       .  A
C2161      C4374   1.406   1_455  A
C2162      C2163   1.397       .  A
C2162      H2171   1.083       .  S
C2163      C2164   1.401       .  A
C2163      H2172   1.084       .  S
C2164      C2170   1.404       .  A
C2164      C4373   1.414       .  A
C2165      C4372   1.414       .  A
C2165      C2167   1.401       .  A
C2165      C2166   1.405       .  A
C2166      C4369   1.406       .  A
C2166      H2173   1.084       .  S
C2167      C2168   1.397       .  A
C2167      H2174   1.084       .  S
C2168      C2169   1.407       .  A
C2168      H2175   1.083       .  S
C2169      C4378   1.405       .  A
C2170      C4377   1.405       .  A
C2170      H2176   1.084       .  S
C2177      C3282   1.408   1_455  A
C2177      C2182   1.405       .  A
C2178      C3281   1.408   1_565  A
C2178      C2179   1.396       .  A
C2178      H2187   1.083       .  S
C2179      C2180   1.400   1_565  A
C2179      H2188   1.084       .  S
C2180      C2186   1.406       .  A
C2180      C3285   1.415       .  A
C2181      C3284   1.415       .  A
C2181      C2183   1.400       .  A
C2181      C2182   1.406       .  A
C2182      H2189   1.084       .  S
C2183      C2184   1.397       .  A
C2183      H2190   1.084       .  S
C2184      C2185   1.407       .  A
C2184      H2191   1.083       .  S
C2185      C3290   1.405   1_455  A
C2186      C3289   1.405       .  A
C2186      H2192   1.084   1_545  S
C2193      C2194   1.407       .  A
C2193      C3302   1.406   1_455  A
C2194      C2195   1.397       .  A
C2194      H2203   1.083       .  S
C2195      C2196   1.401       .  A
C2195      H2204   1.084       .  S
C2196      C2202   1.408       .  A
C2196      C3301   1.416   1_455  A
C2197      C3300   1.416   1_565  A
C2197      C2199   1.402       .  A
C2197      C2198   1.409       .  A
C2198      C3297   1.406   1_565  A
C2198      H2205   1.084       .  S
C2199      C2200   1.399       .  A
C2199      H2206   1.084       .  S
C2200      C3305   1.406   1_565  A
C2200      H2207   1.083       .  S
C2201      C3304   1.406       .  A
C2201      C2202   1.405   1_655  A
C2202      H2208   1.084       .  S
O2209      V2217   1.911       .  S
O2210      V2217   1.912       .  S
O2211      V3321   1.893   1_545  S
O2211      C2221   1.263   1_655  A
O2212      V2217   1.892       .  S
O2212      C2222   1.263   1_655  A
O2213      V3322   1.906       .  S
O2214      V2218   1.905       .  S
O2215      V2218   1.895       .  S
O2215      C2220   1.263       .  A
O2216      V2218   1.892       .  S
O2216      C2219   1.263       .  A
V2217      O3315   1.893       .  S
V2218      O3317   1.906   1_545  S
C2219      C3289   1.481       .  S
C2220      C3297   1.482       .  S
C2221      C3273   1.480       .  S
C2222      C3257   1.480       .  S
O2223      V2231   1.906       .  S
O2224      V2231   1.906       .  S
O2225      V2231   1.886       .  S
O2225      C2235   1.262   1_655  A
O2226      V2231   1.887       .  S
O2226      C2236   1.261   1_655  A
O2227      V2232   1.911       .  S
O2228      V2232   1.913       .  S
O2229      V2232   1.895       .  S
O2229      C2234   1.264       .  A
O2230      V2232   1.891       .  S
O2230      C2233   1.262       .  A
C2233      C3249   1.479       .  S
C2234      C3265   1.481       .  S
C2235      C3241   1.476       .  S
C2236      C3217   1.480       .  S
O2237      V3349   1.908       .  S
O2237      C2247   1.268       .  A
O2238      V2245   1.910   1_545  S
O2238      C2248   1.267       .  A
O2239      V2245   1.889       .  S
O2239      C2249   1.263       .  A
O2240      V2245   1.889       .  S
O2240      C2250   1.262       .  A
O2241      V2246   1.910       .  S
O2241      C3354   1.268       .  A
O2242      V2246   1.912       .  S
O2242      C3353   1.267       .  A
O2243      V3350   1.896   1_545  S
O2243      C2248   1.264       .  A
O2244      V2246   1.897       .  S
O2244      C2247   1.264       .  A
V2245      O3341   1.908       .  S
V2245      V3350   2.085       .  T
V2246      O3347   1.896       .  S
V2246      V3349   2.085       .  T
C2247      C3161   1.484       .  S
C2248      C3169   1.483       .  S
C2249      O3346   1.267       .  A
C2249      C3209   1.479       .  S
C2250      O3345   1.268       .  A
C2250      C3193   1.479       .  S
O2251      V2259   1.911       .  S
O2251      C2261   1.268       .  A
O2252      V2259   1.905       .  S
O2252      C2262   1.267       .  A
O2253      V2259   1.894       .  S
O2253      C2263   1.263       .  A
O2254      V2259   1.894       .  S
O2254      C2264   1.263       .  A
O2255      V2260   1.909       .  S
O2255      C2264   1.268       .  A
O2256      V2260   1.912       .  S
O2256      C2263   1.267       .  A
O2257      V2260   1.899       .  S
O2257      C2262   1.264       .  A
O2258      V2260   1.895       .  S
O2258      C2261   1.264       .  A
V2259      V2260   2.086       .  T
C2261      C3153   1.485       .  S
C2262      C3177   1.482       .  S
C2263      C3137   1.480       .  S
C2264      C3121   1.483       .  S
O2265      V2273   1.912       .  S
O2265      C3379   1.268       .  A
O2266      V2273   1.912       .  S
O2266      C2276   1.267       .  A
O2267      C2277   1.264       .  A
O2268      V2273   1.892       .  S
O2268      C2278   1.263       .  A
O2269      C3382   1.266       .  A
O2270      V2274   1.899       .  S
O2270      C3381   1.265       .  A
O2271      V2274   1.897       .  S
O2272      V2274   1.897       .  S
C2275      O3369   1.268       .  A
C2275      C3081   1.487       .  S
C2276      C3305   1.481       .  S
C2277      O3374   1.265   1_545  A
C2277      C3097   1.479   1_545  S
C2278      O3373   1.266   1_545  A
C2278      C3105   1.478       .  S
O2279      C2289   1.264       .  A
O2280      V2287   1.894       .  S
O2280      C2290   1.263       .  A
O2281      V2287   1.914       .  S
O2282      V2287   1.912       .  S
O2283      V2288   1.889       .  S
O2283      C2292   1.262   1_655  A
O2284      V2288   1.886       .  S
O2284      C2291   1.262   1_655  A
O2285      C2290   1.266       .  A
O2286      V2288   1.905       .  S
O2286      C2289   1.266       .  A
C2289      C3041   1.480       .  S
C2290      C3065   1.479       .  S
C2291      C3233   1.480       .  S
C2292      C3025   1.482       .  S
O2293      V2301   1.895       .  S
O2293      C3407   1.264       .  A
O2294      V2301   1.897       .  S
O2294      C3408   1.265       .  A
O2295      V2301   1.908       .  S
O2295      C2305   1.267       .  A
O2296      V2301   1.910       .  S
O2296      C3410   1.266       .  A
O2297      V2302   1.893       .  S
O2297      C2306   1.263       .  A
O2298      V2302   1.894       .  S
O2298      C3409   1.264       .  A
O2299      V2302   1.901       .  S
O2299      C2304   1.265       .  A
O2300      V2302   1.901       .  S
O2300      C2303   1.266       .  A
V2301      V3406   2.085       .  T
V2302      V3405   2.085   1_545  T
C2303      O3397   1.264   1_545  A
C2303      C3113   1.478   1_545  S
C2304      O3398   1.265   1_545  A
C2304      C3089   1.480       .  S
C2305      O3402   1.264       .  A
C2305      C3009   1.482       .  S
C2306      O3400   1.266   1_545  A
C2306      C3201   1.475       .  S
O2307      V2315   1.904       .  S
O2307      C2317   1.266       .  A
O2308      V2315   1.901       .  S
O2308      C2318   1.266       .  A
O2309      V2315   1.902       .  S
O2309      C2319   1.265       .  A
O2310      V2315   1.902       .  S
O2310      C2320   1.265       .  A
O2311      V2316   1.905       .  S
O2311      C2320   1.266       .  A
O2312      V2316   1.905       .  S
O2312      C2319   1.266       .  A
O2313      V2316   1.897       .  S
O2313      C2318   1.264       .  A
O2314      V2316   1.894       .  S
O2314      C2317   1.264       .  A
V2315      V2316   2.086       .  T
C2317      C3057   1.479       .  S
C2318      C3049   1.480       .  S
C2319      C3145   1.483       .  S
C2320      C2993   1.485       .  S
O2321      V2329   1.889       .  S
O2322      V2329   1.890       .  S
O2323      V3433   1.908       .  S
O2324      V2329   1.909       .  S
O2325      V3434   1.890       .  S
O2325      C2334   1.262       .  A
O2326      V2330   1.895       .  S
O2326      C2333   1.264       .  A
O2327      V2330   1.910       .  S
O2327      C2332   1.268       .  A
O2328      V2330   1.909       .  S
O2328      C2331   1.267       .  A
V2329      O3427   1.908       .  S
V2330      O3429   1.890   1_545  S
C2331      C2977   1.477       .  S
C2332      C3281   1.481       .  S
C2333      C2969   1.483       .  S
C2334      C2945   1.480       .  S
O2335      V2343   1.894       .  S
O2335      C2345   1.263       .  A
O2336      V2343   1.890       .  S
O2336      C2346   1.262       .  A
O2337      V2343   1.912       .  S
O2337      C2347   1.267       .  A
O2338      V2343   1.913       .  S
O2338      C2348   1.268   1_655  A
O2339      V2344   1.886       .  S
O2340      V2344   1.887       .  S
O2341      V2344   1.909       .  S
O2342      V2344   1.910       .  S
C2345      C2961   1.484       .  S
C2346      C2953   1.480       .  S
C2347      C2937   1.477       .  S
C2348      C3225   1.481       .  S
O2349      V2357   1.910       .  S
O2349      C2359   1.267   1_545  A
O2350      V2357   1.909       .  S
O2350      C2360   1.267   1_545  A
O2351      V3461   1.894       .  S
O2351      C2361   1.263       .  A
O2352      V2357   1.898       .  S
O2352      C2362   1.264       .  A
O2353      V3462   1.906   1_545  S
O2353      C2362   1.267       .  A
O2354      V2358   1.910       .  S
O2354      C2361   1.267       .  A
O2355      V2358   1.889       .  S
O2355      C3464   1.262       .  A
O2356      V2358   1.889       .  S
O2356      C3463   1.263       .  A
V2357      O3455   1.894   1_545  S
V2357      V3462   2.086   1_545  T
V2358      O3457   1.906       .  S
V2358      V3461   2.086       .  T
C2359      O3460   1.263       .  A
C2359      C4025   1.478       .  S
C2360      O3459   1.262       .  A
C2360      C3185   1.478       .  S
C2361      C2881   1.483       .  S
C2362      C2905   1.483       .  S
O2363      V2371   1.895       .  S
O2363      C2373   1.263       .  A
O2364      V2371   1.896       .  S
O2364      C2374   1.264       .  A
O2365      V2371   1.910       .  S
O2365      C2375   1.268       .  A
O2366      V2371   1.910       .  S
O2366      C2376   1.266       .  A
O2367      V2372   1.887       .  S
O2367      C2376   1.261       .  A
O2368      V2372   1.890       .  S
O2368      C2375   1.262       .  A
O2369      V2372   1.907       .  S
O2369      C2374   1.267       .  A
O2370      V2372   1.910       .  S
O2370      C2373   1.268       .  A
V2371      V2372   2.085       .  T
C2373      C2889   1.484       .  S
C2374      C2897   1.483       .  S
C2375      C3129   1.482       .  S
C2376      C2873   1.471       .  S
O2377      V3489   1.906       .  S
O2377      C2387   1.266       .  A
O2378      C2388   1.267       .  A
O2379      V2385   1.893       .  S
O2380      V2385   1.892       .  S
O2381      V2386   1.906       .  S
O2381      C2390   1.266       .  A
O2382      V2386   1.907       .  S
O2382      C2389   1.266       .  A
O2383      V3490   1.891   1_545  S
O2383      C2388   1.263       .  A
O2384      C2387   1.264       .  A
V2385      O3481   1.906   1_545  S
V2386      O3487   1.891       .  S
C2387      C2817   1.481       .  S
C2388      C2833   1.480       .  S
C2389      C2849   1.481       .  S
C2390      C2985   1.474       .  S
O2391      C2401   1.268       .  A
O2392      V2399   1.906       .  S
O2392      C2402   1.267       .  A
O2393      V2399   1.890       .  S
O2394      V2399   1.891       .  S
O2395      V2400   1.909       .  S
O2395      C2404   1.268   1_655  A
O2396      V2400   1.910       .  S
O2396      C2403   1.266   1_655  A
O2397      C2402   1.263       .  A
O2398      V2400   1.890       .  S
O2398      C2401   1.262       .  A
C2401      C2769   1.480       .  S
C2402      C2785   1.480       .  S
C2403      C2929   1.473       .  S
C2404      C2801   1.480       .  S
O2405      V2413   1.894       .  S
O2405      C2415   1.263       .  A
O2406      V3517   1.888   1_545  S
O2406      C2416   1.262       .  A
O2407      V2413   1.911       .  S
O2407      C2417   1.266       .  A
O2408      V2413   1.910       .  S
O2408      C2418   1.268       .  A
O2409      V2414   1.890       .  S
O2409      C3522   1.262       .  A
O2410      V2414   1.888       .  S
O2410      C3521   1.262   1_545  A
O2411      V2414   1.909       .  S
O2411      C2416   1.268       .  A
O2412      V3518   1.906       .  S
O2412      C2415   1.267       .  A
V2413      O3510   1.888       .  S
V2413      V3518   2.086       .  T
V2414      O3516   1.906   1_545  S
V2414      V3517   2.086   1_545  T
C2415      C2793   1.480       .  S
C2416      C2777   1.479       .  S
C2417      O3514   1.262       .  A
C2417      C2913   1.472       .  S
C2418      O3513   1.262       .  A
C2418      C2753   1.481       .  S
O2419      V2427   1.903       .  S
O2419      C2429   1.265       .  A
O2420      V2427   1.903       .  S
O2420      C2430   1.267       .  A
O2421      V2427   1.891       .  S
O2421      C2431   1.263       .  A
O2422      V2427   1.896       .  S
O2422      C2432   1.264       .  A
O2423      V2428   1.907       .  S
O2423      C2432   1.267       .  A
O2424      V2428   1.906       .  S
O2424      C2431   1.266       .  A
O2425      V2428   1.893       .  S
O2425      C2430   1.263       .  A
O2426      V2428   1.892       .  S
O2426      C2429   1.264       .  A
V2427      V2428   2.086       .  T
C2429      C2865   1.477       .  S
C2430      C2745   1.479       .  S
C2431      C2841   1.477       .  S
C2432      C2825   1.482       .  S
O2433      V2441   1.902       .  S
O2434      V2441   1.903       .  S
O2435      V2441   1.902       .  S
O2435      C2445   1.266       .  A
O2436      C2446   1.264       .  A
O2437      V2442   1.907       .  S
O2437      C3550   1.267   1_545  A
O2438      C3549   1.266   1_545  A
O2439      V2442   1.906       .  S
O2439      C3548   1.266   1_545  A
O2440      V2442   1.906       .  S
O2440      C3547   1.266   1_545  A
C2443      O3544   1.266       .  A
C2443      C3073   1.486       .  S
C2444      O3543   1.266       .  A
C2444      C2729   1.481       .  S
C2445      O3542   1.266       .  A
C2445      C2689   1.485       .  S
C2446      O3541   1.267       .  A
C2446      C2705   1.484       .  S
O2447      V2455   1.905       .  S
O2447      C2457   1.266       .  A
O2448      C2458   1.266       .  A
O2449      V2455   1.906       .  S
O2449      C2459   1.266   1_655  A
O2450      V2455   1.905   1_455  S
O2450      C2460   1.267       .  A
O2451      V2456   1.897       .  S
O2452      V2456   1.896       .  S
O2453      V2456   1.898       .  S
O2453      C2458   1.264       .  A
O2454      C2457   1.264       .  A
C2457      C2641   1.479       .  S
C2458      C2657   1.481       .  S
C2459      C2673   1.478       .  S
C2460      C3033   1.482       .  S
O2461      V2469   1.907       .  S
O2461      C2471   1.267       .  A
O2462      V2469   1.905       .  S
O2462      C2472   1.266       .  A
O2463      V2469   1.898       .  S
O2463      C2473   1.265       .  A
O2464      V2469   1.899       .  S
O2464      C2474   1.264       .  A
O2465      V2470   1.904       .  S
O2465      C3578   1.266       .  A
O2466      V2470   1.905       .  S
O2466      C3577   1.265       .  A
O2467      V2470   1.903       .  S
O2467      C3576   1.266       .  A
O2468      V2470   1.898       .  S
O2468      C3575   1.264       .  A
V2469      V3574   2.086       .  T
V2470      V3573   2.086   1_545  T
C2471      O3572   1.264       .  A
C2471      C2713   1.484       .  S
C2472      O3571   1.266       .  A
C2472      C2697   1.486       .  S
C2473      O3570   1.265       .  A
C2473      C2625   1.479       .  S
C2474      O3569   1.266       .  A
C2474      C3017   1.482       .  S
O2475      V2483   1.898       .  S
O2475      C2485   1.264       .  A
O2476      V2483   1.897       .  S
O2476      C2486   1.264       .  A
O2477      V2483   1.903       .  S
O2477      C2487   1.266       .  A
O2478      V2483   1.905       .  S
O2478      C2488   1.266       .  A
O2479      V2484   1.896       .  S
O2479      C2488   1.264       .  A
O2480      V2484   1.894       .  S
O2480      C2487   1.263       .  A
O2481      V2484   1.908       .  S
O2481      C2486   1.266       .  A
O2482      V2484   1.908       .  S
O2482      C2485   1.267       .  A
V2483      V2484   2.085       .  T
C2485      C3001   1.485       .  S
C2486      C2609   1.481       .  S
C2487      C2649   1.479       .  S
C2488      C2665   1.481       .  S
O2489      V3601   1.899       .  S
O2489      C2499   1.265       .  A
O2490      C2500   1.264       .  A
O2491      V2497   1.902       .  S
O2491      C3605   1.265       .  A
O2492      V2497   1.900       .  S
O2492      C3606   1.265   1_655  A
O2493      V2498   1.902       .  S
O2494      V2498   1.905       .  S
O2495      V3602   1.903   1_545  S
O2495      C2500   1.266       .  A
O2496      C2499   1.265       .  A
V2497      O3593   1.899   1_545  S
V2498      O3599   1.903       .  S
C2499      C2577   1.479       .  S
C2500      C2593   1.481       .  S
C2501      O3595   1.265       .  A
C2501      C2721   1.480       .  S
C2502      O3596   1.265   1_455  A
C2502      C2857   1.482       .  S
O2503      V2511   1.909       .  S
O2503      C2513   1.268       .  A
O2504      C2514   1.268       .  A
O2505      V2511   1.890       .  S
O2506      V2511   1.890       .  S
O2507      V2512   1.910       .  S
O2507      C2516   1.268       .  A
O2508      V2512   1.911       .  S
O2508      C2515   1.267       .  A
O2509      V2512   1.891       .  S
O2509      C2514   1.263       .  A
O2510      C2513   1.262       .  A
C2513      C2553   1.480       .  S
C2514      C2569   1.481       .  S
C2515      C2681   1.479       .  S
O2517      V3629   1.892       .  S
O2517      C2527   1.263       .  A
O2518      V2525   1.888       .  S
O2518      C2528   1.262       .  A
O2519      V2525   1.913       .  S
O2519      C3633   1.268   1_545  A
O2520      V2525   1.913       .  S
O2520      C3634   1.268   1_545  A
O2521      V2526   1.888       .  S
O2521      C2530   1.262       .  A
O2522      V2526   1.889       .  S
O2522      C2529   1.262       .  A
O2523      V3630   1.910   1_545  S
O2523      C2528   1.268       .  A
O2524      V2526   1.909       .  S
O2524      C2527   1.268       .  A
V2525      O3621   1.892   1_545  S
V2525      V3630   2.086   1_545  T
V2526      O3627   1.910       .  S
V2526      V3629   2.086       .  T
C2527      C2561   1.482       .  S
C2528      C2545   1.480       .  S
C2529      O3623   1.268       .  A
C2529      C2633   1.478       .  S
C2530      O3624   1.268       .  A
C2530      C2761   1.481       .  S
O2531      V2539   1.899       .  S
O2531      C2541   1.265       .  A
O2532      V2539   1.898       .  S
O2532      C2542   1.264       .  A
O2533      V2539   1.910       .  S
O2533      C2543   1.266       .  A
O2534      V2539   1.907       .  S
O2534      C2544   1.267       .  A
O2535      V2540   1.890       .  S
O2535      C2544   1.263       .  A
O2536      V2540   1.892       .  S
O2536      C2543   1.263       .  A
O2537      V2540   1.902       .  S
O2537      C2542   1.266       .  A
O2538      V2540   1.898       .  S
O2538      C2541   1.265       .  A
V2539      V2540   2.086       .  T
C2541      C2585   1.479       .  S
C2542      C2601   1.481       .  S
C2543      C2617   1.477       .  S
C2544      C2737   1.479       .  S
C2545      C2546   1.405       .  A
C2545      C2550   1.408       .  A
C2546      C2547   1.399       .  A
C2546      H2555   1.083       .  S
C2547      C2548   1.404       .  A
C2547      H2556   1.084       .  S
C2548      C2554   1.403       .  A
C2548      C2549   1.412       .  A
C2549      C2551   1.403       .  A
C2549      C2550   1.402       .  A
C2550      H2557   1.085       .  S
C2551      C2552   1.398       .  A
C2551      H2558   1.084       .  S
C2552      C2553   1.404       .  A
C2552      H2559   1.083       .  S
C2553      C2554   1.409       .  A
C2554      H2560   1.084       .  S
C2561      C2562   1.408       .  A
C2561      C2566   1.405       .  A
C2562      C2563   1.397       .  A
C2562      H2571   1.083       .  S
C2563      C2564   1.400       .  A
C2563      H2572   1.084       .  S
C2564      C2570   1.406       .  A
C2564      C2565   1.415       .  A
C2565      C2567   1.400       .  A
C2565      C2566   1.405       .  A
C2566      H2573   1.084       .  S
C2567      C2568   1.396       .  A
C2567      H2574   1.084       .  S
C2568      C2569   1.408       .  A
C2568      H2575   1.083       .  S
C2569      C2570   1.406       .  A
C2570      H2576   1.084       .  S
C2577      C2578   1.406       .  A
C2577      C2582   1.406       .  A
C2578      C2579   1.397       .  A
C2578      H2587   1.083       .  S
C2579      C2580   1.402       .  A
C2579      H2588   1.084       .  S
C2580      C2586   1.403       .  A
C2580      C2581   1.414       .  A
C2581      C2583   1.401       .  A
C2581      C2582   1.403       .  A
C2582      H2589   1.084       .  S
C2583      C2584   1.397       .  A
C2583      H2590   1.084       .  S
C2584      C2585   1.406       .  A
C2584      H2591   1.083       .  S
C2585      C2586   1.407       .  A
C2586      H2592   1.084       .  S
C2593      C2594   1.406       .  A
C2593      C2598   1.406       .  A
C2594      C2595   1.397       .  A
C2594      H2603   1.083       .  S
C2595      C2596   1.402       .  A
C2595      H2604   1.084       .  S
C2596      C2602   1.405       .  A
C2596      C2597   1.414       .  A
C2597      C2599   1.401       .  A
C2597      C2598   1.404       .  A
C2598      H2605   1.084       .  S
C2599      C2600   1.397       .  A
C2599      H2606   1.084       .  S
C2600      C2601   1.406       .  A
C2600      H2607   1.083       .  S
C2601      C2602   1.407       .  A
C2602      H2608   1.084       .  S
C2609      C2610   1.406       .  A
C2609      C2614   1.404       .  A
C2610      C2611   1.402       .  A
C2610      H2619   1.083       .  S
C2611      C2612   1.404       .  A
C2611      H2620   1.083       .  S
C2612      C2618   1.409       .  A
C2612      C2613   1.415       .  A
C2613      C2615   1.400       .  A
C2613      C2614   1.402       .  A
C2614      H2621   1.084       .  S
C2615      C2616   1.394       .  A
C2615      H2622   1.084       .  S
C2616      C2617   1.405       .  A
C2616      H2623   1.083       .  S
C2617      C2618   1.407       .  A
C2618      H2624   1.084       .  S
C2625      C3730   1.406       .  A
C2625      C2630   1.404       .  A
C2626      C3729   1.406       .  A
C2626      C2627   1.401       .  A
C2626      H2635   1.083       .  S
C2627      C2628   1.404       .  A
C2627      H2636   1.083       .  S
C2628      C2634   1.409       .  A
C2628      C3733   1.415   1_545  A
C2629      C3732   1.415       .  A
C2629      C2631   1.400       .  A
C2629      C2630   1.402       .  A
C2630      H2637   1.084       .  S
C2631      C2632   1.394       .  A
C2631      H2638   1.084       .  S
C2632      C2633   1.406       .  A
C2632      H2639   1.083       .  S
C2633      C3738   1.407       .  A
C2634      C3737   1.407   1_545  A
C2634      H2640   1.084       .  S
C2641      C2642   1.406       .  A
C2641      C2646   1.406       .  A
C2642      C2643   1.399       .  A
C2642      H2651   1.083       .  S
C2643      C2644   1.404       .  A
C2643      H2652   1.084       .  S
C2644      C2650   1.404       .  A
C2644      C2645   1.413       .  A
C2645      C2647   1.401       .  A
C2645      C2646   1.400       .  A
C2646      H2653   1.084       .  S
C2647      C2648   1.396       .  A
C2647      H2654   1.084       .  S
C2648      C2649   1.405       .  A
C2648      H2655   1.083       .  S
C2649      C2650   1.409       .  A
C2650      H2656   1.084       .  S
C2657      C2658   1.407       .  A
C2657      C2662   1.406       .  A
C2658      C2659   1.398       .  A
C2658      H2667   1.083       .  S
C2659      C2660   1.402       .  A
C2659      H2668   1.084       .  S
C2660      C2666   1.406       .  A
C2660      C2661   1.414       .  A
C2661      C2663   1.400       .  A
C2661      C2662   1.404       .  A
C2662      H2669   1.084       .  S
C2663      C2664   1.396       .  A
C2663      H2670   1.084       .  S
C2664      C2665   1.407       .  A
C2664      H2671   1.083       .  S
C2665      C2666   1.407       .  A
C2666      H2672   1.084       .  S
C2673      C2678   1.404       .  A
C2674      C2675   1.401       .  A
C2674      H2683   1.083       .  S
C2675      C2676   1.404       .  A
C2675      H2684   1.083       .  S
C2676      C2682   1.408       .  A
C2677      C2679   1.400   1_455  A
C2677      C2678   1.401       .  A
C2678      H2685   1.085       .  S
C2679      C2680   1.394       .  A
C2679      H2686   1.084       .  S
C2680      H2687   1.083       .  S
C2681      C2682   1.407       .  A
C2682      H2688   1.084       .  S
C2689      C2690   1.407       .  A
C2689      C3798   1.408       .  A
C2690      C2691   1.398       .  A
C2690      H2699   1.083       .  S
C2691      C2692   1.402       .  A
C2691      H2700   1.084       .  S
C2692      C2698   1.407       .  A
C2692      C3797   1.414       .  A
C2693      C3796   1.414   1_545  A
C2693      C2695   1.402       .  A
C2693      C2694   1.407       .  A
C2694      C3793   1.408   1_545  A
C2694      H2701   1.084       .  S
C2695      C2696   1.399       .  A
C2695      H2702   1.084       .  S
C2696      C3801   1.407       .  A
C2696      H2703   1.083       .  S
C2697      C3800   1.407       .  A
C2697      C2698   1.408       .  A
C2698      H2704   1.084       .  S
C2705      C2706   1.407       .  A
C2705      C3814   1.407       .  A
C2706      C2707   1.398       .  A
C2706      H2715   1.083       .  S
C2707      C2708   1.402       .  A
C2707      H2716   1.084       .  S
C2708      C2714   1.407       .  A
C2708      C3813   1.414       .  A
C2709      C3812   1.414   1_545  A
C2709      C2711   1.401       .  A
C2709      C2710   1.406       .  A
C2710      C3809   1.407   1_545  A
C2710      H2717   1.084       .  S
C2711      C2712   1.397       .  A
C2711      H2718   1.084       .  S
C2712      C3817   1.407       .  A
C2712      H2719   1.083       .  S
C2713      C3816   1.407       .  A
C2713      C2714   1.407       .  A
C2714      H2720   1.084       .  S
C2721      C2722   1.405       .  A
C2722      C2723   1.399       .  A
C2722      H2731   1.083       .  S
C2723      C2724   1.403       .  A
C2723      H2732   1.083       .  S
C2724      C2730   1.407       .  A
C2725      C2727   1.403       .  A
C2725      C2726   1.407       .  A
C2726      H2733   1.084       .  S
C2727      C2728   1.399       .  A
C2727      H2734   1.084       .  S
C2728      C3833   1.405       .  A
C2728      H2735   1.083       .  S
C2729      C3832   1.405       .  A
C2730      H2736   1.084       .  S
C2737      C2738   1.407       .  A
C2737      C2742   1.406       .  A
C2738      C2739   1.394       .  A
C2738      H2747   1.083       .  S
C2739      C2740   1.399       .  A
C2739      H2748   1.084       .  S
C2740      C2746   1.402       .  A
C2740      C2741   1.414       .  A
C2741      C2743   1.402       .  A
C2741      C2742   1.406       .  A
C2742      H2749   1.084       .  S
C2743      C2744   1.398       .  A
C2743      H2750   1.084       .  S
C2744      C2745   1.407       .  A
C2744      H2751   1.083       .  S
C2745      C2746   1.404       .  A
C2746      H2752   1.084       .  S
C2753      C3858   1.408       .  A
C2753      C2758   1.404       .  A
C2754      C3857   1.408       .  A
C2754      C2755   1.397       .  A
C2754      H2763   1.083       .  S
C2755      C2756   1.400       .  A
C2755      H2764   1.084       .  S
C2756      C2762   1.407       .  A
C2756      C3861   1.415   1_545  A
C2757      C3860   1.415       .  A
C2757      C2759   1.399       .  A
C2757      C2758   1.405       .  A
C2758      H2765   1.084       .  S
C2759      C2760   1.395       .  A
C2759      H2766   1.084       .  S
C2760      C2761   1.408       .  A
C2760      H2767   1.083       .  S
C2761      C3866   1.405       .  A
C2762      C3865   1.405       .  A
C2762      H2768   1.084       .  S
C2769      C2770   1.408       .  A
C2769      C2774   1.404       .  A
C2770      C2771   1.396       .  A
C2770      H2779   1.083       .  S
C2771      C2772   1.400       .  A
C2771      H2780   1.084       .  S
C2772      C2778   1.405       .  A
C2772      C2773   1.415       .  A
C2773      C2775   1.400       .  A
C2773      C2774   1.404       .  A
C2774      H2781   1.084       .  S
C2775      C2776   1.395       .  A
C2775      H2782   1.084       .  S
C2776      C2777   1.407       .  A
C2776      H2783   1.083       .  S
C2777      C2778   1.405       .  A
C2778      H2784   1.084       .  S
C2785      C2786   1.405       .  A
C2785      C2790   1.407       .  A
C2786      C2787   1.399       .  A
C2786      H2795   1.083       .  S
C2787      C2788   1.403       .  A
C2787      H2796   1.084       .  S
C2788      C2794   1.404       .  A
C2788      C2789   1.412       .  A
C2789      C2791   1.402       .  A
C2789      C2790   1.402       .  A
C2790      H2797   1.084       .  S
C2791      C2792   1.397       .  A
C2791      H2798   1.084       .  S
C2792      C2793   1.405       .  A
C2792      H2799   1.083       .  S
C2793      C2794   1.409       .  A
C2794      H2800   1.084       .  S
C2801      C2806   1.405   1_455  A
C2802      C2803   1.396       .  A
C2802      H2811   1.083       .  S
C2803      C2804   1.400       .  A
C2803      H2812   1.084       .  S
C2804      C2810   1.405       .  A
C2805      C2807   1.400       .  A
C2805      C2806   1.405       .  A
C2806      H2813   1.084       .  S
C2807      C2808   1.396       .  A
C2807      H2814   1.084       .  S
C2808      C2809   1.408       .  A
C2808      H2815   1.083       .  S
C2810      H2816   1.084       .  S
C2817      C2818   1.407       .  A
C2817      C2822   1.406       .  A
C2818      C2819   1.396       .  A
C2818      H2827   1.083       .  S
C2819      C2820   1.401       .  A
C2819      H2828   1.084       .  S
C2820      C2826   1.405       .  A
C2820      C2821   1.414       .  A
C2821      C2823   1.401       .  A
C2821      C2822   1.406       .  A
C2822      H2829   1.084       .  S
C2823      C2824   1.398       .  A
C2823      H2830   1.084       .  S
C2824      C2825   1.407       .  A
C2824      H2831   1.083       .  S
C2825      C2826   1.406       .  A
C2826      H2832   1.084       .  S
C2833      C2834   1.405       .  A
C2833      C2838   1.408       .  A
C2834      C2835   1.398       .  A
C2834      H2843   1.083       .  S
C2835      C2836   1.403       .  A
C2835      H2844   1.084       .  S
C2836      C2842   1.402       .  A
C2836      C2837   1.412       .  A
C2837      C2839   1.403       .  A
C2837      C2838   1.402       .  A
C2838      H2845   1.084       .  S
C2839      C2840   1.398       .  A
C2839      H2846   1.084       .  S
C2840      C2841   1.404       .  A
C2840      H2847   1.083       .  S
C2841      C2842   1.407       .  A
C2842      H2848   1.084       .  S
C2849      C3958   1.408       .  A
C2850      C2851   1.395       .  A
C2850      H2859   1.083       .  S
C2851      C2852   1.400       .  A
C2851      H2860   1.084       .  S
C2852      C2858   1.402       .  A
C2853      C2855   1.403       .  A
C2853      C2854   1.407       .  A
C2854      C3953   1.408   1_565  A
C2854      H2861   1.084       .  S
C2855      C2856   1.400       .  A
C2855      H2862   1.084       .  S
C2856      H2863   1.083       .  S
C2857      C2858   1.405   1_455  A
C2858      H2864   1.084       .  S
C2865      C2866   1.406       .  A
C2865      C2870   1.404       .  A
C2866      C2867   1.400       .  A
C2866      H2875   1.083       .  S
C2867      C2868   1.403   1_556  A
C2867      H2876   1.084       .  S
C2868      C2874   1.407       .  A
C2868      C2869   1.415   1_554  A
C2869      C2871   1.399   1_556  A
C2869      C2870   1.400       .  A
C2870      H2877   1.084       .  S
C2871      C2872   1.393       .  A
C2871      H2878   1.084       .  S
C2872      C2873   1.404       .  A
C2872      H2879   1.083       .  S
C2873      C2874   1.404       .  A
C2874      H2880   1.084       .  S
C2881      C2882   1.407       .  A
C2881      C2886   1.407       .  A
C2882      C2883   1.397       .  A
C2882      H2891   1.083       .  S
C2883      C2884   1.400       .  A
C2883      H2892   1.084       .  S
C2884      C2890   1.406       .  A
C2884      C2885   1.415       .  A
C2885      C2887   1.401       .  A
C2885      C2886   1.407       .  A
C2886      H2893   1.084       .  S
C2887      C2888   1.398       .  A
C2887      H2894   1.084       .  S
C2888      C2889   1.408       .  A
C2888      H2895   1.083       .  S
C2889      C2890   1.406       .  A
C2890      H2896   1.084       .  S
C2897      C2898   1.407       .  A
C2897      C2902   1.407       .  A
C2898      C2899   1.397       .  A
C2898      H2907   1.083       .  S
C2899      C2900   1.401       .  A
C2899      H2908   1.084       .  S
C2900      C2906   1.405       .  A
C2900      C2901   1.414       .  A
C2901      C2903   1.401       .  A
C2901      C2902   1.406       .  A
C2902      H2909   1.084       .  S
C2903      C2904   1.398       .  A
C2903      H2910   1.084       .  S
C2904      C2905   1.407       .  A
C2904      H2911   1.083       .  S
C2905      C2906   1.406       .  A
C2906      H2912   1.084       .  S
C2913      C2914   1.403       .  A
C2913      C4022   1.406       .  A
C2914      C2915   1.392       .  A
C2914      H2923   1.084       .  S
C2915      C2916   1.400   1_556  A
C2915      H2924   1.084       .  S
C2916      C2922   1.399       .  A
C2916      C4021   1.414   1_554  A
C2917      C4020   1.414   1_556  A
C2917      C2919   1.405   1_566  A
C2917      C2918   1.409       .  A
C2918      C4017   1.406       .  A
C2918      H2925   1.084   1_565  S
C2919      C2920   1.402       .  A
C2919      H2926   1.083       .  S
C2920      C4025   1.405   1_545  A
C2920      H2927   1.083       .  S
C2921      C3463   1.478       .  S
C2921      C4024   1.405       .  A
C2921      C2922   1.404       .  A
C2922      H2928   1.085       .  S
C2929      C2934   1.406   1_455  A
C2930      C2931   1.393       .  A
C2930      H2939   1.084       .  S
C2931      C2932   1.400   1_556  A
C2931      H2940   1.084   1_556  S
C2932      C2938   1.400       .  A
C2933      C2935   1.405   1_556  A
C2933      C2934   1.408       .  A
C2934      H2941   1.084       .  S
C2935      C2936   1.402       .  A
C2935      H2942   1.083   1_554  S
C2936      C2937   1.404       .  A
C2936      H2943   1.083       .  S
C2938      H2944   1.085       .  S
C2945      C2946   1.407       .  A
C2946      C2947   1.396       .  A
C2946      H2955   1.083       .  S
C2947      C2948   1.400       .  A
C2947      H2956   1.084       .  S
C2948      C2954   1.405       .  A
C2949      C2951   1.400       .  A
C2949      C2950   1.405       .  A
C2950      H2957   1.084       .  S
C2951      C2952   1.396       .  A
C2951      H2958   1.084       .  S
C2952      C2953   1.408       .  A
C2952      H2959   1.083       .  S
C2954      H2960   1.084       .  S
C2961      C2962   1.408       .  A
C2962      C2963   1.397       .  A
C2962      H2971   1.083       .  S
C2963      C2964   1.401       .  A
C2963      H2972   1.084       .  S
C2964      C2970   1.406       .  A
C2965      C2967   1.401       .  A
C2965      C2966   1.407       .  A
C2966      H2973   1.084       .  S
C2967      C2968   1.398       .  A
C2967      H2974   1.084       .  S
C2968      C2969   1.408       .  A
C2968      H2975   1.083       .  S
C2970      H2976   1.084       .  S
C2977      C2978   1.405       .  A
C2978      C2979   1.400       .  A
C2978      H2987   1.083       .  S
C2979      C2980   1.404   1_554  A
C2979      H2988   1.084   1_554  S
C2980      C2986   1.406       .  A
C2981      C2983   1.401   1_554  A
C2981      C2982   1.400       .  A
C2982      H2989   1.085       .  S
C2983      C2984   1.394       .  A
C2983      H2990   1.084   1_556  S
C2984      H2991   1.083       .  S
C2985      C4090   1.406       .  A
C2986      C4089   1.406       .  A
C2986      H2992   1.084       .  S
C2993      C2994   1.406       .  A
C2993      C2998   1.408       .  A
C2994      C2995   1.399       .  A
C2994      H3003   1.083       .  S
C2995      C2996   1.402       .  A
C2995      H3004   1.084       .  S
C2996      C3002   1.407       .  A
C2996      C2997   1.414       .  A
C2997      C2999   1.402       .  A
C2997      C2998   1.406       .  A
C2998      H3005   1.084       .  S
C2999      C3000   1.398       .  A
C2999      H3006   1.084       .  S
C3000      C3001   1.407       .  A
C3000      H3007   1.083       .  S
C3001      C3002   1.407       .  A
C3002      H3008   1.084       .  S
C3009      C4114   1.407       .  A
C3009      C3014   1.407       .  A
C3010      C4113   1.407       .  A
C3010      C3011   1.396       .  A
C3010      H3019   1.083       .  S
C3011      C3012   1.400       .  A
C3011      H3020   1.084       .  S
C3012      C3018   1.404       .  A
C3012      C4117   1.414   1_545  A
C3013      C4116   1.414       .  A
C3013      C3015   1.402       .  A
C3013      C3014   1.407       .  A
C3014      H3021   1.084       .  S
C3015      C3016   1.399       .  A
C3015      H3022   1.084       .  S
C3016      C3017   1.407       .  A
C3016      H3023   1.083       .  S
C3017      C4122   1.405       .  A
C3018      C4121   1.405   1_545  A
C3018      H3024   1.084       .  S
C3025      C3026   1.408   1_455  A
C3026      C3027   1.395       .  A
C3026      H3035   1.083       .  S
C3027      C3028   1.400   1_655  A
C3027      H3036   1.084       .  S
C3028      C3034   1.405       .  A
C3029      C3031   1.401       .  A
C3029      C3030   1.407       .  A
C3030      H3037   1.084       .  S
C3031      C3032   1.398       .  A
C3031      H3038   1.084       .  S
C3032      H3039   1.083       .  S
C3033      C3034   1.405       .  A
C3034      H3040   1.084   1_455  S
C3041      C3042   1.407       .  A
C3041      C3046   1.406       .  A
C3042      C3043   1.396       .  A
C3042      H3051   1.083       .  S
C3043      C3044   1.400       .  A
C3043      H3052   1.084       .  S
C3044      C3050   1.403       .  A
C3044      C3045   1.414       .  A
C3045      C3047   1.401       .  A
C3045      C3046   1.405       .  A
C3046      H3053   1.084       .  S
C3047      C3048   1.397       .  A
C3047      H3054   1.084       .  S
C3048      C3049   1.407       .  A
C3048      H3055   1.083       .  S
C3049      C3050   1.405       .  A
C3050      H3056   1.084       .  S
C3057      C3058   1.405       .  A
C3057      C3062   1.407       .  A
C3058      C3059   1.398       .  A
C3058      H3067   1.083       .  S
C3059      C3060   1.403       .  A
C3059      H3068   1.084       .  S
C3060      C3066   1.403       .  A
C3060      C3061   1.413       .  A
C3061      C3063   1.402       .  A
C3061      C3062   1.402       .  A
C3062      H3069   1.084       .  S
C3063      C3064   1.397       .  A
C3063      H3070   1.084       .  S
C3064      C3065   1.405       .  A
C3064      H3071   1.083       .  S
C3065      C3066   1.408       .  A
C3066      H3072   1.084       .  S
C3073      C4182   1.410       .  A
C3074      C3075   1.397       .  A
C3074      H3083   1.083       .  S
C3075      C3076   1.402       .  A
C3075      H3084   1.084       .  S
C3076      C3082   1.405       .  A
C3077      C3079   1.404       .  A
C3077      C3078   1.409       .  A
C3078      C4177   1.410   1_545  A
C3078      H3085   1.084       .  S
C3079      C3080   1.402       .  A
C3079      H3086   1.084       .  S
C3080      C4185   1.406       .  A
C3080      H3087   1.083       .  S
C3081      C4184   1.406       .  A
C3082      H3088   1.084       .  S
C3089      C3090   1.406       .  A
C3089      C4198   1.406   1_545  A
C3090      C3091   1.399       .  A
C3090      H3099   1.083       .  S
C3091      C3092   1.403       .  A
C3091      H3100   1.084       .  S
C3092      C3098   1.404       .  A
C3092      C4197   1.413   1_545  A
C3093      C4196   1.413       .  A
C3093      C3095   1.401       .  A
C3093      C3094   1.402       .  A
C3094      C4193   1.406       .  A
C3094      H3101   1.084       .  S
C3095      C3096   1.395       .  A
C3095      H3102   1.084       .  S
C3096      C4201   1.405       .  A
C3096      H3103   1.083       .  S
C3097      C4200   1.405       .  A
C3097      C3098   1.408   1_565  A
C3098      H3104   1.084       .  S
C3105      C3106   1.406       .  A
C3105      C4214   1.406   1_545  A
C3106      C3107   1.395       .  A
C3106      H3115   1.083       .  S
C3107      C3108   1.400       .  A
C3107      H3116   1.084       .  S
C3108      C3114   1.402       .  A
C3108      C4213   1.414   1_545  A
C3109      C4212   1.414       .  A
C3109      C3111   1.401       .  A
C3109      C3110   1.404       .  A
C3110      C4209   1.406       .  A
C3110      H3117   1.084       .  S
C3111      C3112   1.397       .  A
C3111      H3118   1.084       .  S
C3112      C4217   1.407       .  A
C3112      H3119   1.083       .  S
C3113      C4216   1.407       .  A
C3113      C3114   1.405   1_565  A
C3114      H3120   1.084       .  S
C3121      C3122   1.405       .  A
C3121      C3126   1.409       .  A
C3122      C3123   1.398       .  A
C3122      H3131   1.083       .  S
C3123      C3124   1.403       .  A
C3123      H3132   1.084       .  S
C3124      C3130   1.403       .  A
C3124      C3125   1.412       .  A
C3125      C3127   1.404       .  A
C3125      C3126   1.404       .  A
C3126      H3133   1.084       .  S
C3127      C3128   1.399       .  A
C3127      H3134   1.084       .  S
C3128      C3129   1.405       .  A
C3128      H3135   1.083       .  S
C3129      C3130   1.409       .  A
C3130      H3136   1.084       .  S
C3137      C3138   1.406       .  A
C3137      C3142   1.406       .  A
C3138      C3139   1.397       .  A
C3138      H3147   1.083       .  S
C3139      C3140   1.401       .  A
C3139      H3148   1.084       .  S
C3140      C3146   1.406       .  A
C3140      C3141   1.415       .  A
C3141      C3143   1.402       .  A
C3141      C3142   1.409       .  A
C3142      H3149   1.084       .  S
C3143      C3144   1.400       .  A
C3143      H3150   1.084       .  S
C3144      C3145   1.406       .  A
C3144      H3151   1.083       .  S
C3145      C3146   1.406       .  A
C3146      H3152   1.084       .  S
C3153      C3154   1.407       .  A
C3153      C3158   1.408       .  A
C3154      C3155   1.396       .  A
C3154      H3163   1.083       .  S
C3155      C3156   1.400       .  A
C3155      H3164   1.084       .  S
C3156      C3162   1.406       .  A
C3156      C3157   1.414       .  A
C3157      C3159   1.402       .  A
C3157      C3158   1.408       .  A
C3158      H3165   1.084       .  S
C3159      C3160   1.399       .  A
C3159      H3166   1.084       .  S
C3160      C3161   1.408       .  A
C3160      H3167   1.083       .  S
C3161      C3162   1.406       .  A
C3162      H3168   1.084       .  S
C3169      C3170   1.407       .  A
C3169      C3174   1.408       .  A
C3170      C3171   1.396       .  A
C3170      H3179   1.083       .  S
C3171      C3172   1.400       .  A
C3171      H3180   1.084       .  S
C3172      C3178   1.404       .  A
C3172      C3173   1.414       .  A
C3173      C3175   1.403       .  A
C3173      C3174   1.408       .  A
C3174      H3181   1.084       .  S
C3175      C3176   1.400       .  A
C3175      H3182   1.084       .  S
C3176      C3177   1.407       .  A
C3176      H3183   1.083       .  S
C3177      C3178   1.405       .  A
C3178      H3184   1.084       .  S
C3185      C4290   1.407       .  A
C3185      C3190   1.404       .  A
C3186      C4289   1.407       .  A
C3186      C3187   1.395       .  A
C3186      H3195   1.083       .  S
C3187      C3188   1.400       .  A
C3187      H3196   1.084       .  S
C3188      C3194   1.405       .  A
C3188      C4293   1.415       .  A
C3189      C4292   1.415       .  A
C3189      C3191   1.400   1_565  A
C3189      C3190   1.405       .  A
C3190      H3197   1.084   1_565  S
C3191      C3192   1.396   1_545  A
C3191      H3198   1.084       .  S
C3192      C3193   1.407       .  A
C3192      H3199   1.083   1_565  S
C3193      C4298   1.404       .  A
C3194      C4297   1.404       .  A
C3194      H3200   1.084       .  S
C3201      C3202   1.403       .  A
C3201      C4310   1.408   1_545  A
C3202      C3203   1.393       .  A
C3202      H3211   1.083       .  S
C3203      C3204   1.400       .  A
C3203      H3212   1.084       .  S
C3204      C3210   1.399       .  A
C3204      C4309   1.414   1_545  A
C3205      C4308   1.414       .  A
C3205      C3207   1.406       .  A
C3205      C3206   1.410       .  A
C3206      C4305   1.408       .  A
C3206      H3213   1.084       .  S
C3207      C3208   1.403       .  A
C3207      H3214   1.083       .  S
C3208      C4313   1.405       .  A
C3208      H3215   1.083       .  S
C3209      C4312   1.405       .  A
C3209      C3210   1.404   1_565  A
C3210      H3216   1.085       .  S
C3217      C3218   1.408   1_455  A
C3218      C3219   1.397       .  A
C3218      H3227   1.083       .  S
C3219      C3220   1.400       .  A
C3219      H3228   1.084       .  S
C3220      C3226   1.406       .  A
C3221      C3223   1.399       .  A
C3221      C3222   1.404       .  A
C3222      H3229   1.084       .  S
C3223      C3224   1.395       .  A
C3223      H3230   1.084       .  S
C3224      H3231   1.083       .  S
C3225      C3226   1.405   1_455  A
C3226      H3232   1.084       .  S
C3233      C3234   1.406   1_455  A
C3234      C3235   1.391       .  A
C3234      H3243   1.083       .  S
C3235      C3236   1.398   1_655  A
C3235      H3244   1.084       .  S
C3236      C3242   1.398       .  A
C3237      C3239   1.406       .  A
C3237      C3238   1.409       .  A
C3238      H3245   1.084       .  S
C3239      C3240   1.403       .  A
C3239      H3246   1.083       .  S
C3240      H3247   1.083       .  S
C3241      C3242   1.403       .  A
C3242      H3248   1.085   1_455  S
C3249      C3254   1.408       .  A
C3250      C3251   1.397       .  A
C3250      H3259   1.083       .  S
C3251      C3252   1.402   1_655  A
C3251      H3260   1.084       .  S
C3252      C3258   1.402       .  A
C3253      C3255   1.403       .  A
C3253      C3254   1.403       .  A
C3254      H3261   1.084       .  S
C3255      C3256   1.399       .  A
C3255      H3262   1.084       .  S
C3256      H3263   1.083       .  S
C3257      C3258   1.407       .  A
C3258      H3264   1.084   1_455  S
C3265      C3266   1.407       .  A
C3266      C3267   1.397       .  A
C3266      H3275   1.083       .  S
C3267      C3268   1.401       .  A
C3267      H3276   1.084       .  S
C3268      C3274   1.404       .  A
C3269      C3271   1.401   1_455  A
C3269      C3270   1.405   1_455  A
C3270      H3277   1.084       .  S
C3271      C3272   1.397       .  A
C3271      H3278   1.084       .  S
C3272      C3273   1.407   1_655  A
C3272      H3279   1.083       .  S
C3274      H3280   1.084       .  S
C3281      C3286   1.405       .  A
C3282      C3283   1.396       .  A
C3282      H3291   1.083       .  S
C3283      C3284   1.400   1_655  A
C3283      H3292   1.084       .  S
C3284      C3290   1.406   1_455  A
C3285      C3287   1.400       .  A
C3285      C3286   1.406       .  A
C3286      H3293   1.084       .  S
C3287      C3288   1.397       .  A
C3287      H3294   1.084       .  S
C3288      C3289   1.407       .  A
C3288      H3295   1.083       .  S
C3290      H3296   1.084       .  S
C3297      C3298   1.407       .  A
C3298      C3299   1.397       .  A
C3298      H3307   1.083       .  S
C3299      C3300   1.401       .  A
C3299      H3308   1.084       .  S
C3300      C3306   1.408       .  A
C3301      C3303   1.402       .  A
C3301      C3302   1.409       .  A
C3302      H3309   1.084       .  S
C3303      C3304   1.399       .  A
C3303      H3310   1.084       .  S
C3304      H3311   1.083       .  S
C3305      C3306   1.405       .  A
C3306      H3312   1.084       .  S
O3313      V3321   1.911       .  S
O3314      V3321   1.912       .  S
O3315      C3325   1.263   1_655  A
O3316      V3321   1.892       .  S
O3316      C3326   1.263   1_655  A
O3318      V3322   1.905       .  S
O3319      V3322   1.895       .  S
O3319      C3324   1.263       .  A
O3320      V3322   1.892       .  S
O3320      C3323   1.263       .  A
C3323      C4393   1.481       .  S
C3324      C4401   1.482       .  S
C3325      C4377   1.480       .  S
C3326      C4361   1.480       .  S
O3327      V3335   1.906       .  S
O3328      V3335   1.906       .  S
O3329      V3335   1.886       .  S
O3329      C3339   1.262   1_655  A
O3330      V3335   1.887       .  S
O3330      C3340   1.261   1_655  A
O3331      V3336   1.911       .  S
O3332      V3336   1.913       .  S
O3333      V3336   1.895       .  S
O3333      C3338   1.264       .  A
O3334      V3336   1.891       .  S
O3334      C3337   1.262       .  A
C3337      C4353   1.479       .  S
C3338      C4369   1.481       .  S
C3339      C4345   1.476       .  S
C3340      C4321   1.480       .  S
O3341      C3351   1.268       .  A
O3342      V3349   1.910       .  S
O3342      C3352   1.267       .  A
O3343      V3349   1.889       .  S
O3343      C3353   1.263       .  A
O3344      V3349   1.889       .  S
O3344      C3354   1.262       .  A
O3345      V3350   1.910       .  S
O3346      V3350   1.912       .  S
O3347      C3352   1.264       .  A
O3348      V3350   1.897       .  S
O3348      C3351   1.264       .  A
C3351      C4265   1.484       .  S
C3352      C4273   1.483       .  S
C3353      C4313   1.479       .  S
C3354      C4297   1.479       .  S
O3355      V3363   1.911       .  S
O3355      C3365   1.268       .  A
O3356      V3363   1.905       .  S
O3356      C3366   1.267       .  A
O3357      V3363   1.894       .  S
O3357      C3367   1.263       .  A
O3358      V3363   1.894       .  S
O3358      C3368   1.263       .  A
O3359      V3364   1.909       .  S
O3359      C3368   1.268       .  A
O3360      V3364   1.912       .  S
O3360      C3367   1.267       .  A
O3361      V3364   1.899       .  S
O3361      C3366   1.264       .  A
O3362      V3364   1.895       .  S
O3362      C3365   1.264       .  A
V3363      V3364   2.086       .  T
C3365      C4257   1.485       .  S
C3366      C4281   1.482       .  S
C3367      C4241   1.480       .  S
C3368      C4225   1.483       .  S
O3369      V3377   1.912       .  S
O3370      V3377   1.912       .  S
O3370      C3380   1.267       .  A
O3371      C3381   1.264       .  A
O3372      V3377   1.892       .  S
O3372      C3382   1.263       .  A
O3374      V3378   1.899       .  S
O3375      V3378   1.897       .  S
O3376      V3378   1.897       .  S
C3379      C4185   1.487       .  S
C3380      C4409   1.481       .  S
C3381      C4201   1.479       .  S
C3382      C4209   1.478       .  S
O3383      C3393   1.264       .  A
O3384      V3391   1.894       .  S
O3384      C3394   1.263       .  A
O3385      V3391   1.914       .  S
O3386      V3391   1.912       .  S
O3387      V3392   1.889       .  S
O3387      C3396   1.262   1_655  A
O3388      V3392   1.886       .  S
O3388      C3395   1.262   1_655  A
O3389      C3394   1.266       .  A
O3390      V3392   1.905       .  S
O3390      C3393   1.266       .  A
C3393      C4145   1.480       .  S
C3394      C4169   1.479       .  S
C3395      C4337   1.480       .  S
C3396      C4129   1.482       .  S
O3397      V3405   1.895       .  S
O3398      V3405   1.897       .  S
O3399      V3405   1.908       .  S
O3399      C3409   1.267   1_565  A
O3400      V3405   1.910       .  S
O3401      V3406   1.893       .  S
O3401      C3410   1.263       .  A
O3402      V3406   1.894       .  S
O3403      V3406   1.901       .  S
O3403      C3408   1.265       .  A
O3404      V3406   1.901       .  S
O3404      C3407   1.266       .  A
C3407      C4217   1.478       .  S
C3408      C4193   1.480       .  S
C3409      C4113   1.482       .  S
C3410      C4305   1.475       .  S
O3411      V3419   1.904       .  S
O3411      C3421   1.266       .  A
O3412      V3419   1.901       .  S
O3412      C3422   1.266       .  A
O3413      V3419   1.902       .  S
O3413      C3423   1.265       .  A
O3414      V3419   1.902       .  S
O3414      C3424   1.265       .  A
O3415      V3420   1.905       .  S
O3415      C3424   1.266       .  A
O3416      V3420   1.905       .  S
O3416      C3423   1.266       .  A
O3417      V3420   1.897       .  S
O3417      C3422   1.264       .  A
O3418      V3420   1.894       .  S
O3418      C3421   1.264       .  A
V3419      V3420   2.086       .  T
C3421      C4161   1.479       .  S
C3422      C4153   1.480       .  S
C3423      C4249   1.483       .  S
C3424      C4097   1.485       .  S
O3425      V3433   1.889       .  S
O3426      V3433   1.890       .  S
O3428      V3433   1.909   1_565  S
O3429      C3438   1.262       .  A
O3430      V3434   1.895       .  S
O3430      C3437   1.264       .  A
O3431      V3434   1.910       .  S
O3431      C3436   1.268       .  A
O3432      V3434   1.909       .  S
O3432      C3435   1.267       .  A
C3435      C4081   1.477       .  S
C3436      C4385   1.481       .  S
C3437      C4073   1.483       .  S
C3438      C4049   1.480       .  S
O3439      V3447   1.894       .  S
O3439      C3449   1.263       .  A
O3440      V3447   1.890       .  S
O3440      C3450   1.262       .  A
O3441      V3447   1.912       .  S
O3441      C3451   1.267       .  A
O3442      V3447   1.913       .  S
O3442      C3452   1.268   1_655  A
O3443      V3448   1.886       .  S
O3444      V3448   1.887       .  S
O3445      V3448   1.909       .  S
O3446      V3448   1.910       .  S
C3449      C4065   1.484       .  S
C3450      C4057   1.480       .  S
C3451      C4041   1.477       .  S
C3452      C4329   1.481       .  S
O3453      V3461   1.910       .  S
O3453      C3463   1.267       .  A
O3454      V3461   1.909       .  S
O3454      C3464   1.267       .  A
O3455      C3465   1.263       .  A
O3456      V3461   1.898       .  S
O3456      C3466   1.264       .  A
O3457      C3466   1.267       .  A
O3458      V3462   1.910       .  S
O3458      C3465   1.267       .  A
O3459      V3462   1.889       .  S
O3460      V3462   1.889       .  S
C3464      C4289   1.478       .  S
C3465      C3985   1.483       .  S
C3466      C4009   1.483       .  S
O3467      V3475   1.895       .  S
O3467      C3477   1.263       .  A
O3468      V3475   1.896       .  S
O3468      C3478   1.264       .  A
O3469      V3475   1.910       .  S
O3469      C3479   1.268       .  A
O3470      V3475   1.910       .  S
O3470      C3480   1.266       .  A
O3471      V3476   1.887       .  S
O3471      C3480   1.261       .  A
O3472      V3476   1.890       .  S
O3472      C3479   1.262       .  A
O3473      V3476   1.907       .  S
O3473      C3478   1.267       .  A
O3474      V3476   1.910       .  S
O3474      C3477   1.268       .  A
V3475      V3476   2.085       .  T
C3477      C3993   1.484       .  S
C3478      C4001   1.483       .  S
C3479      C4233   1.482       .  S
C3480      C3977   1.471       .  S
O3481      C3491   1.266       .  A
O3482      C3492   1.267       .  A
O3483      V3489   1.893       .  S
O3484      V3489   1.892       .  S
O3485      V3490   1.906       .  S
O3485      C3494   1.266   1_565  A
O3486      V3490   1.907       .  S
O3486      C3493   1.266   1_565  A
O3487      C3492   1.263       .  A
O3488      C3491   1.264       .  A
C3491      C3921   1.481       .  S
C3492      C3937   1.480       .  S
C3493      C3953   1.481       .  S
C3494      C4089   1.474       .  S
O3495      C3505   1.268       .  A
O3496      V3503   1.906       .  S
O3496      C3506   1.267       .  A
O3497      V3503   1.890       .  S
O3498      V3503   1.891       .  S
O3499      V3504   1.909       .  S
O3499      C3508   1.268   1_655  A
O3500      V3504   1.910       .  S
O3500      C3507   1.266   1_655  A
O3501      C3506   1.263       .  A
O3502      V3504   1.890       .  S
O3502      C3505   1.262       .  A
C3505      C3873   1.480       .  S
C3506      C3889   1.480       .  S
C3507      C4033   1.473       .  S
C3508      C3905   1.480       .  S
O3509      V3517   1.894       .  S
O3509      C3519   1.263       .  A
O3510      C3520   1.262       .  A
O3511      V3517   1.911       .  S
O3511      C3521   1.266       .  A
O3512      V3517   1.910       .  S
O3512      C3522   1.268   1_565  A
O3513      V3518   1.890       .  S
O3514      V3518   1.888       .  S
O3515      V3518   1.909       .  S
O3515      C3520   1.268       .  A
O3516      C3519   1.267       .  A
C3519      C3897   1.480       .  S
C3520      C3881   1.479       .  S
C3521      C4017   1.472       .  S
C3522      C3857   1.481       .  S
O3523      V3531   1.903       .  S
O3523      C3533   1.265       .  A
O3524      V3531   1.903       .  S
O3524      C3534   1.267       .  A
O3525      V3531   1.891       .  S
O3525      C3535   1.263       .  A
O3526      V3531   1.896       .  S
O3526      C3536   1.264       .  A
O3527      V3532   1.907       .  S
O3527      C3536   1.267       .  A
O3528      V3532   1.906       .  S
O3528      C3535   1.266       .  A
O3529      V3532   1.893       .  S
O3529      C3534   1.263       .  A
O3530      V3532   1.892       .  S
O3530      C3533   1.264       .  A
V3531      V3532   2.086       .  T
C3533      C3969   1.477       .  S
C3534      C3849   1.479       .  S
C3535      C3945   1.477       .  S
C3536      C3929   1.482       .  S
O3537      V3545   1.902       .  S
O3538      V3545   1.903       .  S
O3539      V3545   1.902       .  S
O3539      C3549   1.266       .  A
O3540      C3550   1.264       .  A
O3541      V3546   1.907       .  S
O3543      V3546   1.906       .  S
O3544      V3546   1.906       .  S
C3547      C4177   1.486       .  S
C3548      C3833   1.481       .  S
C3549      C3793   1.485       .  S
C3550      C3809   1.484       .  S
O3551      V3559   1.905       .  S
O3551      C3561   1.266       .  A
O3552      C3562   1.266       .  A
O3553      V3559   1.906       .  S
O3553      C3563   1.266   1_655  A
O3554      V3559   1.905   1_455  S
O3554      C3564   1.267       .  A
O3555      V3560   1.897       .  S
O3556      V3560   1.896       .  S
O3557      V3560   1.898       .  S
O3557      C3562   1.264       .  A
O3558      C3561   1.264       .  A
C3561      C3745   1.479       .  S
C3562      C3761   1.481       .  S
C3563      C3777   1.478       .  S
C3564      C4137   1.482       .  S
O3565      V3573   1.907       .  S
O3565      C3575   1.267   1_565  A
O3566      V3573   1.905       .  S
O3566      C3576   1.266   1_565  A
O3567      V3573   1.898       .  S
O3567      C3577   1.265   1_565  A
O3568      V3573   1.899       .  S
O3568      C3578   1.264   1_565  A
O3569      V3574   1.904       .  S
O3570      V3574   1.905       .  S
O3571      V3574   1.903       .  S
O3572      V3574   1.898       .  S
C3575      C3817   1.484       .  S
C3576      C3801   1.486       .  S
C3577      C3729   1.479       .  S
C3578      C4121   1.482   1_545  S
O3579      V3587   1.898       .  S
O3579      C3589   1.264       .  A
O3580      V3587   1.897       .  S
O3580      C3590   1.264       .  A
O3581      V3587   1.903       .  S
O3581      C3591   1.266       .  A
O3582      V3587   1.905       .  S
O3582      C3592   1.266       .  A
O3583      V3588   1.896       .  S
O3583      C3592   1.264       .  A
O3584      V3588   1.894       .  S
O3584      C3591   1.263       .  A
O3585      V3588   1.908       .  S
O3585      C3590   1.266       .  A
O3586      V3588   1.908       .  S
O3586      C3589   1.267       .  A
V3587      V3588   2.085       .  T
C3589      C4105   1.485       .  S
C3590      C3713   1.481       .  S
C3591      C3753   1.479       .  S
C3592      C3769   1.481       .  S
O3593      C3603   1.265       .  A
O3594      C3604   1.264       .  A
O3595      V3601   1.902       .  S
O3596      V3601   1.900       .  S
O3597      V3602   1.902       .  S
O3598      V3602   1.905       .  S
O3599      C3604   1.266       .  A
O3600      C3603   1.265       .  A
C3603      C3681   1.479       .  S
C3604      C3697   1.481       .  S
C3605      C3825   1.480       .  S
C3606      C3961   1.482       .  S
O3607      V3615   1.909       .  S
O3607      C3617   1.268       .  A
O3608      C3618   1.268       .  A
O3609      V3615   1.890       .  S
O3610      V3615   1.890       .  S
O3611      V3616   1.910       .  S
O3611      C3620   1.268       .  A
O3612      V3616   1.911       .  S
O3612      C3619   1.267       .  A
O3613      V3616   1.891       .  S
O3613      C3618   1.263       .  A
O3614      C3617   1.262       .  A
C3617      C3657   1.480       .  S
C3618      C3673   1.481       .  S
C3619      C3785   1.479       .  S
O3621      C3631   1.263       .  A
O3622      V3629   1.888       .  S
O3622      C3632   1.262       .  A
O3623      V3629   1.913       .  S
O3624      V3629   1.913       .  S
O3625      V3630   1.888       .  S
O3625      C3634   1.262       .  A
O3626      V3630   1.889       .  S
O3626      C3633   1.262       .  A
O3627      C3632   1.268       .  A
O3628      V3630   1.909       .  S
O3628      C3631   1.268       .  A
C3631      C3665   1.482       .  S
C3632      C3649   1.480       .  S
C3633      C3737   1.478       .  S
C3634      C3865   1.481   1_565  S
O3635      V3643   1.899       .  S
O3635      C3645   1.265       .  A
O3636      V3643   1.898       .  S
O3636      C3646   1.264       .  A
O3637      V3643   1.910       .  S
O3637      C3647   1.266       .  A
O3638      V3643   1.907       .  S
O3638      C3648   1.267       .  A
O3639      V3644   1.890       .  S
O3639      C3648   1.263       .  A
O3640      V3644   1.892       .  S
O3640      C3647   1.263       .  A
O3641      V3644   1.902       .  S
O3641      C3646   1.266       .  A
O3642      V3644   1.898       .  S
O3642      C3645   1.265       .  A
V3643      V3644   2.086       .  T
C3645      C3689   1.479       .  S
C3646      C3705   1.481       .  S
C3647      C3721   1.477       .  S
C3648      C3841   1.479       .  S
C3649      C3650   1.405       .  A
C3649      C3654   1.408       .  A
C3650      C3651   1.399       .  A
C3650      H3659   1.083       .  S
C3651      C3652   1.404       .  A
C3651      H3660   1.084       .  S
C3652      C3658   1.403       .  A
C3652      C3653   1.412       .  A
C3653      C3655   1.403       .  A
C3653      C3654   1.402       .  A
C3654      H3661   1.085       .  S
C3655      C3656   1.398       .  A
C3655      H3662   1.084       .  S
C3656      C3657   1.404       .  A
C3656      H3663   1.083       .  S
C3657      C3658   1.409       .  A
C3658      H3664   1.084       .  S
C3665      C3666   1.408       .  A
C3665      C3670   1.405       .  A
C3666      C3667   1.397       .  A
C3666      H3675   1.083       .  S
C3667      C3668   1.400       .  A
C3667      H3676   1.084       .  S
C3668      C3674   1.406       .  A
C3668      C3669   1.415       .  A
C3669      C3671   1.400       .  A
C3669      C3670   1.405       .  A
C3670      H3677   1.084       .  S
C3671      C3672   1.396       .  A
C3671      H3678   1.084       .  S
C3672      C3673   1.408       .  A
C3672      H3679   1.083       .  S
C3673      C3674   1.406       .  A
C3674      H3680   1.084       .  S
C3681      C3682   1.406       .  A
C3681      C3686   1.406       .  A
C3682      C3683   1.397       .  A
C3682      H3691   1.083       .  S
C3683      C3684   1.402       .  A
C3683      H3692   1.084       .  S
C3684      C3690   1.403       .  A
C3684      C3685   1.414       .  A
C3685      C3687   1.401       .  A
C3685      C3686   1.403       .  A
C3686      H3693   1.084       .  S
C3687      C3688   1.397       .  A
C3687      H3694   1.084       .  S
C3688      C3689   1.406       .  A
C3688      H3695   1.083       .  S
C3689      C3690   1.407       .  A
C3690      H3696   1.084       .  S
C3697      C3698   1.406       .  A
C3697      C3702   1.406       .  A
C3698      C3699   1.397       .  A
C3698      H3707   1.083       .  S
C3699      C3700   1.402       .  A
C3699      H3708   1.084       .  S
C3700      C3706   1.405       .  A
C3700      C3701   1.414       .  A
C3701      C3703   1.401       .  A
C3701      C3702   1.404       .  A
C3702      H3709   1.084       .  S
C3703      C3704   1.397       .  A
C3703      H3710   1.084       .  S
C3704      C3705   1.406       .  A
C3704      H3711   1.083       .  S
C3705      C3706   1.407       .  A
C3706      H3712   1.084       .  S
C3713      C3714   1.406       .  A
C3713      C3718   1.404       .  A
C3714      C3715   1.402       .  A
C3714      H3723   1.083       .  S
C3715      C3716   1.404       .  A
C3715      H3724   1.083       .  S
C3716      C3722   1.409       .  A
C3716      C3717   1.415       .  A
C3717      C3719   1.400       .  A
C3717      C3718   1.402       .  A
C3718      H3725   1.084       .  S
C3719      C3720   1.394       .  A
C3719      H3726   1.084       .  S
C3720      C3721   1.405       .  A
C3720      H3727   1.083       .  S
C3721      C3722   1.407       .  A
C3722      H3728   1.084       .  S
C3729      C3734   1.404   1_545  A
C3730      C3731   1.401       .  A
C3730      H3739   1.083       .  S
C3731      C3732   1.404       .  A
C3731      H3740   1.083       .  S
C3732      C3738   1.409       .  A
C3733      C3735   1.400       .  A
C3733      C3734   1.402       .  A
C3734      H3741   1.084       .  S
C3735      C3736   1.394       .  A
C3735      H3742   1.084       .  S
C3736      C3737   1.406       .  A
C3736      H3743   1.083       .  S
C3738      H3744   1.084       .  S
C3745      C3746   1.406       .  A
C3745      C3750   1.406       .  A
C3746      C3747   1.399       .  A
C3746      H3755   1.083       .  S
C3747      C3748   1.404       .  A
C3747      H3756   1.084       .  S
C3748      C3754   1.404       .  A
C3748      C3749   1.413       .  A
C3749      C3751   1.401       .  A
C3749      C3750   1.400       .  A
C3750      H3757   1.084       .  S
C3751      C3752   1.396       .  A
C3751      H3758   1.084       .  S
C3752      C3753   1.405       .  A
C3752      H3759   1.083       .  S
C3753      C3754   1.409       .  A
C3754      H3760   1.084       .  S
C3761      C3762   1.407       .  A
C3761      C3766   1.406       .  A
C3762      C3763   1.398       .  A
C3762      H3771   1.083       .  S
C3763      C3764   1.402       .  A
C3763      H3772   1.084       .  S
C3764      C3770   1.406       .  A
C3764      C3765   1.414       .  A
C3765      C3767   1.400       .  A
C3765      C3766   1.404       .  A
C3766      H3773   1.084       .  S
C3767      C3768   1.396       .  A
C3767      H3774   1.084       .  S
C3768      C3769   1.407       .  A
C3768      H3775   1.083       .  S
C3769      C3770   1.407       .  A
C3770      H3776   1.084       .  S
C3777      C3782   1.404       .  A
C3778      C3779   1.401       .  A
C3778      H3787   1.083       .  S
C3779      C3780   1.404       .  A
C3779      H3788   1.083       .  S
C3780      C3786   1.408       .  A
C3781      C3783   1.400   1_455  A
C3781      C3782   1.401       .  A
C3782      H3789   1.085       .  S
C3783      C3784   1.394       .  A
C3783      H3790   1.084       .  S
C3784      H3791   1.083       .  S
C3785      C3786   1.407       .  A
C3786      H3792   1.084       .  S
C3793      C3794   1.407       .  A
C3794      C3795   1.398       .  A
C3794      H3803   1.083       .  S
C3795      C3796   1.402       .  A
C3795      H3804   1.084       .  S
C3796      C3802   1.407       .  A
C3797      C3799   1.402       .  A
C3797      C3798   1.407       .  A
C3798      H3805   1.084       .  S
C3799      C3800   1.399       .  A
C3799      H3806   1.084       .  S
C3800      H3807   1.083       .  S
C3801      C3802   1.408   1_545  A
C3802      H3808   1.084       .  S
C3809      C3810   1.407       .  A
C3810      C3811   1.398       .  A
C3810      H3819   1.083       .  S
C3811      C3812   1.402       .  A
C3811      H3820   1.084       .  S
C3812      C3818   1.407       .  A
C3813      C3815   1.401       .  A
C3813      C3814   1.406       .  A
C3814      H3821   1.084       .  S
C3815      C3816   1.397       .  A
C3815      H3822   1.084       .  S
C3816      H3823   1.083       .  S
C3817      C3818   1.407   1_545  A
C3818      H3824   1.084       .  S
C3825      C3826   1.405       .  A
C3826      C3827   1.399       .  A
C3826      H3835   1.083       .  S
C3827      C3828   1.403       .  A
C3827      H3836   1.083       .  S
C3828      C3834   1.407       .  A
C3829      C3831   1.403       .  A
C3829      C3830   1.407       .  A
C3830      H3837   1.084       .  S
C3831      C3832   1.399       .  A
C3831      H3838   1.083       .  S
C3832      H3839   1.083       .  S
C3834      H3840   1.084       .  S
C3841      C3842   1.407       .  A
C3841      C3846   1.406       .  A
C3842      C3843   1.394       .  A
C3842      H3851   1.083       .  S
C3843      C3844   1.399       .  A
C3843      H3852   1.084       .  S
C3844      C3850   1.402       .  A
C3844      C3845   1.414       .  A
C3845      C3847   1.402       .  A
C3845      C3846   1.406       .  A
C3846      H3853   1.084       .  S
C3847      C3848   1.398       .  A
C3847      H3854   1.084       .  S
C3848      C3849   1.407       .  A
C3848      H3855   1.083       .  S
C3849      C3850   1.404       .  A
C3850      H3856   1.084       .  S
C3857      C3862   1.404   1_545  A
C3858      C3859   1.397       .  A
C3858      H3867   1.083       .  S
C3859      C3860   1.400       .  A
C3859      H3868   1.084       .  S
C3860      C3866   1.407       .  A
C3861      C3863   1.399       .  A
C3861      C3862   1.405       .  A
C3862      H3869   1.084       .  S
C3863      C3864   1.395       .  A
C3863      H3870   1.084       .  S
C3864      C3865   1.408   1_565  A
C3864      H3871   1.083       .  S
C3866      H3872   1.084       .  S
C3873      C3874   1.408       .  A
C3873      C3878   1.404       .  A
C3874      C3875   1.396       .  A
C3874      H3883   1.083       .  S
C3875      C3876   1.400       .  A
C3875      H3884   1.084       .  S
C3876      C3882   1.405       .  A
C3876      C3877   1.415       .  A
C3877      C3879   1.400       .  A
C3877      C3878   1.404       .  A
C3878      H3885   1.084       .  S
C3879      C3880   1.395       .  A
C3879      H3886   1.084       .  S
C3880      C3881   1.407       .  A
C3880      H3887   1.083       .  S
C3881      C3882   1.405       .  A
C3882      H3888   1.084       .  S
C3889      C3890   1.405       .  A
C3889      C3894   1.407       .  A
C3890      C3891   1.399       .  A
C3890      H3899   1.083       .  S
C3891      C3892   1.403       .  A
C3891      H3900   1.084       .  S
C3892      C3898   1.404       .  A
C3892      C3893   1.412       .  A
C3893      C3895   1.402       .  A
C3893      C3894   1.402       .  A
C3894      H3901   1.084       .  S
C3895      C3896   1.397       .  A
C3895      H3902   1.084       .  S
C3896      C3897   1.405       .  A
C3896      H3903   1.083       .  S
C3897      C3898   1.409       .  A
C3898      H3904   1.084       .  S
C3905      C3910   1.405   1_455  A
C3906      C3907   1.396       .  A
C3906      H3915   1.083       .  S
C3907      C3908   1.400       .  A
C3907      H3916   1.084       .  S
C3908      C3914   1.405       .  A
C3909      C3911   1.400       .  A
C3909      C3910   1.405       .  A
C3910      H3917   1.084       .  S
C3911      C3912   1.396       .  A
C3911      H3918   1.084       .  S
C3912      C3913   1.408       .  A
C3912      H3919   1.083       .  S
C3914      H3920   1.084       .  S
C3921      C3922   1.407       .  A
C3921      C3926   1.406       .  A
C3922      C3923   1.396       .  A
C3922      H3931   1.083       .  S
C3923      C3924   1.401       .  A
C3923      H3932   1.084       .  S
C3924      C3930   1.405       .  A
C3924      C3925   1.414       .  A
C3925      C3927   1.401       .  A
C3925      C3926   1.406       .  A
C3926      H3933   1.084       .  S
C3927      C3928   1.398       .  A
C3927      H3934   1.084       .  S
C3928      C3929   1.407       .  A
C3928      H3935   1.083       .  S
C3929      C3930   1.406       .  A
C3930      H3936   1.084       .  S
C3937      C3938   1.405       .  A
C3937      C3942   1.408       .  A
C3938      C3939   1.398       .  A
C3938      H3947   1.083       .  S
C3939      C3940   1.403       .  A
C3939      H3948   1.084       .  S
C3940      C3946   1.402       .  A
C3940      C3941   1.412       .  A
C3941      C3943   1.403       .  A
C3941      C3942   1.402       .  A
C3942      H3949   1.084       .  S
C3943      C3944   1.398       .  A
C3943      H3950   1.084       .  S
C3944      C3945   1.404       .  A
C3944      H3951   1.083       .  S
C3945      C3946   1.407       .  A
C3946      H3952   1.084       .  S
C3954      C3955   1.395       .  A
C3954      H3963   1.083       .  S
C3955      C3956   1.400       .  A
C3955      H3964   1.084       .  S
C3956      C3962   1.402       .  A
C3957      C3959   1.403       .  A
C3957      C3958   1.407       .  A
C3958      H3965   1.084       .  S
C3959      C3960   1.400       .  A
C3959      H3966   1.084       .  S
C3960      H3967   1.083       .  S
C3961      C3962   1.405   1_455  A
C3962      H3968   1.084       .  S
C3969      C3970   1.406       .  A
C3969      C3974   1.404       .  A
C3970      C3971   1.400       .  A
C3970      H3979   1.083       .  S
C3971      C3972   1.403   1_556  A
C3971      H3980   1.084       .  S
C3972      C3978   1.407       .  A
C3972      C3973   1.415   1_554  A
C3973      C3975   1.399   1_556  A
C3973      C3974   1.400       .  A
C3974      H3981   1.084       .  S
C3975      C3976   1.393       .  A
C3975      H3982   1.084       .  S
C3976      C3977   1.404       .  A
C3976      H3983   1.083       .  S
C3977      C3978   1.404       .  A
C3978      H3984   1.084       .  S
C3985      C3986   1.407       .  A
C3985      C3990   1.407       .  A
C3986      C3987   1.397       .  A
C3986      H3995   1.083       .  S
C3987      C3988   1.400       .  A
C3987      H3996   1.084       .  S
C3988      C3994   1.406       .  A
C3988      C3989   1.415       .  A
C3989      C3991   1.401       .  A
C3989      C3990   1.407       .  A
C3990      H3997   1.084       .  S
C3991      C3992   1.398       .  A
C3991      H3998   1.084       .  S
C3992      C3993   1.408       .  A
C3992      H3999   1.083       .  S
C3993      C3994   1.406       .  A
C3994      H4000   1.084       .  S
C4001      C4002   1.407       .  A
C4001      C4006   1.407       .  A
C4002      C4003   1.397       .  A
C4002      H4011   1.083       .  S
C4003      C4004   1.401       .  A
C4003      H4012   1.084       .  S
C4004      C4010   1.405       .  A
C4004      C4005   1.414       .  A
C4005      C4007   1.401       .  A
C4005      C4006   1.406       .  A
C4006      H4013   1.084       .  S
C4007      C4008   1.398       .  A
C4007      H4014   1.084       .  S
C4008      C4009   1.407       .  A
C4008      H4015   1.083       .  S
C4009      C4010   1.406       .  A
C4010      H4016   1.084       .  S
C4017      C4018   1.403       .  A
C4018      C4019   1.392       .  A
C4018      H4027   1.084       .  S
C4019      C4020   1.400   1_556  A
C4019      H4028   1.084       .  S
C4020      C4026   1.399       .  A
C4021      C4023   1.405   1_556  A
C4021      C4022   1.409       .  A
C4022      H4029   1.084       .  S
C4023      C4024   1.402       .  A
C4023      H4030   1.083       .  S
C4024      H4031   1.083       .  S
C4025      C4026   1.404       .  A
C4026      H4032   1.085       .  S
C4033      C4038   1.406   1_455  A
C4034      C4035   1.393       .  A
C4034      H4043   1.084       .  S
C4035      C4036   1.400   1_556  A
C4035      H4044   1.084   1_556  S
C4036      C4042   1.400       .  A
C4037      C4039   1.405   1_556  A
C4037      C4038   1.408       .  A
C4038      H4045   1.084       .  S
C4039      C4040   1.402       .  A
C4039      H4046   1.083   1_554  S
C4040      C4041   1.404       .  A
C4040      H4047   1.083       .  S
C4042      H4048   1.085       .  S
C4049      C4050   1.407       .  A
C4050      C4051   1.396       .  A
C4050      H4059   1.083       .  S
C4051      C4052   1.400       .  A
C4051      H4060   1.084       .  S
C4052      C4058   1.405       .  A
C4053      C4055   1.400       .  A
C4053      C4054   1.405       .  A
C4054      H4061   1.084       .  S
C4055      C4056   1.396       .  A
C4055      H4062   1.084       .  S
C4056      C4057   1.408       .  A
C4056      H4063   1.083       .  S
C4058      H4064   1.084       .  S
C4065      C4066   1.408       .  A
C4066      C4067   1.397       .  A
C4066      H4075   1.083       .  S
C4067      C4068   1.401       .  A
C4067      H4076   1.084       .  S
C4068      C4074   1.406       .  A
C4069      C4071   1.401       .  A
C4069      C4070   1.407       .  A
C4070      H4077   1.084       .  S
C4071      C4072   1.398       .  A
C4071      H4078   1.084       .  S
C4072      C4073   1.408       .  A
C4072      H4079   1.083       .  S
C4074      H4080   1.084       .  S
C4081      C4082   1.405       .  A
C4082      C4083   1.400       .  A
C4082      H4091   1.083       .  S
C4083      C4084   1.404   1_554  A
C4083      H4092   1.084   1_554  S
C4084      C4090   1.406       .  A
C4085      C4087   1.401   1_554  A
C4085      C4086   1.400       .  A
C4086      H4093   1.085       .  S
C4087      C4088   1.394       .  A
C4087      H4094   1.084   1_556  S
C4088      H4095   1.083       .  S
C4090      H4096   1.084       .  S
C4097      C4098   1.406       .  A
C4097      C4102   1.408       .  A
C4098      C4099   1.399       .  A
C4098      H4107   1.083       .  S
C4099      C4100   1.402       .  A
C4099      H4108   1.084       .  S
C4100      C4106   1.407       .  A
C4100      C4101   1.414       .  A
C4101      C4103   1.402       .  A
C4101      C4102   1.406       .  A
C4102      H4109   1.084       .  S
C4103      C4104   1.398       .  A
C4103      H4110   1.084       .  S
C4104      C4105   1.407       .  A
C4104      H4111   1.083       .  S
C4105      C4106   1.407       .  A
C4106      H4112   1.084       .  S
C4113      C4118   1.407   1_545  A
C4114      C4115   1.396       .  A
C4114      H4123   1.083       .  S
C4115      C4116   1.400       .  A
C4115      H4124   1.084       .  S
C4116      C4122   1.404       .  A
C4117      C4119   1.402       .  A
C4117      C4118   1.407       .  A
C4118      H4125   1.084       .  S
C4119      C4120   1.399       .  A
C4119      H4126   1.084       .  S
C4120      C4121   1.407       .  A
C4120      H4127   1.083       .  S
C4122      H4128   1.084       .  S
C4129      C4130   1.408   1_455  A
C4130      C4131   1.395       .  A
C4130      H4139   1.083       .  S
C4131      C4132   1.400   1_655  A
C4131      H4140   1.084       .  S
C4132      C4138   1.405       .  A
C4133      C4135   1.401       .  A
C4133      C4134   1.407       .  A
C4134      H4141   1.084       .  S
C4135      C4136   1.398       .  A
C4135      H4142   1.084       .  S
C4136      H4143   1.083       .  S
C4137      C4138   1.405       .  A
C4138      H4144   1.084   1_455  S
C4145      C4146   1.407       .  A
C4145      C4150   1.406       .  A
C4146      C4147   1.396       .  A
C4146      H4155   1.083       .  S
C4147      C4148   1.400       .  A
C4147      H4156   1.084       .  S
C4148      C4154   1.403       .  A
C4148      C4149   1.414       .  A
C4149      C4151   1.401       .  A
C4149      C4150   1.405       .  A
C4150      H4157   1.084       .  S
C4151      C4152   1.397       .  A
C4151      H4158   1.084       .  S
C4152      C4153   1.407       .  A
C4152      H4159   1.083       .  S
C4153      C4154   1.405       .  A
C4154      H4160   1.084       .  S
C4161      C4162   1.405       .  A
C4161      C4166   1.407       .  A
C4162      C4163   1.398       .  A
C4162      H4171   1.083       .  S
C4163      C4164   1.403       .  A
C4163      H4172   1.084       .  S
C4164      C4170   1.403       .  A
C4164      C4165   1.413       .  A
C4165      C4167   1.402       .  A
C4165      C4166   1.402       .  A
C4166      H4173   1.084       .  S
C4167      C4168   1.397       .  A
C4167      H4174   1.084       .  S
C4168      C4169   1.405       .  A
C4168      H4175   1.083       .  S
C4169      C4170   1.408       .  A
C4170      H4176   1.084       .  S
C4178      C4179   1.397       .  A
C4178      H4187   1.083       .  S
C4179      C4180   1.402       .  A
C4179      H4188   1.084       .  S
C4180      C4186   1.405       .  A
C4181      C4183   1.404       .  A
C4181      C4182   1.409       .  A
C4182      H4189   1.084       .  S
C4183      C4184   1.402       .  A
C4183      H4190   1.084       .  S
C4184      H4191   1.083       .  S
C4186      H4192   1.084       .  S
C4193      C4194   1.406       .  A
C4194      C4195   1.399       .  A
C4194      H4203   1.083       .  S
C4195      C4196   1.403       .  A
C4195      H4204   1.084       .  S
C4196      C4202   1.404       .  A
C4197      C4199   1.401       .  A
C4197      C4198   1.402       .  A
C4198      H4205   1.084       .  S
C4199      C4200   1.395       .  A
C4199      H4206   1.084       .  S
C4200      H4207   1.083       .  S
C4201      C4202   1.408       .  A
C4202      H4208   1.084       .  S
C4209      C4210   1.406       .  A
C4210      C4211   1.395       .  A
C4210      H4219   1.083       .  S
C4211      C4212   1.400       .  A
C4211      H4220   1.084       .  S
C4212      C4218   1.402       .  A
C4213      C4215   1.401       .  A
C4213      C4214   1.404       .  A
C4214      H4221   1.084       .  S
C4215      C4216   1.397       .  A
C4215      H4222   1.084       .  S
C4216      H4223   1.083       .  S
C4217      C4218   1.405       .  A
C4218      H4224   1.084       .  S
C4225      C4226   1.405       .  A
C4225      C4230   1.409       .  A
C4226      C4227   1.398       .  A
C4226      H4235   1.083       .  S
C4227      C4228   1.403       .  A
C4227      H4236   1.084       .  S
C4228      C4234   1.403       .  A
C4228      C4229   1.412       .  A
C4229      C4231   1.404       .  A
C4229      C4230   1.404       .  A
C4230      H4237   1.084       .  S
C4231      C4232   1.399       .  A
C4231      H4238   1.084       .  S
C4232      C4233   1.405       .  A
C4232      H4239   1.083       .  S
C4233      C4234   1.409       .  A
C4234      H4240   1.084       .  S
C4241      C4242   1.406       .  A
C4241      C4246   1.406       .  A
C4242      C4243   1.397       .  A
C4242      H4251   1.083       .  S
C4243      C4244   1.401       .  A
C4243      H4252   1.084       .  S
C4244      C4250   1.406       .  A
C4244      C4245   1.415       .  A
C4245      C4247   1.402       .  A
C4245      C4246   1.409       .  A
C4246      H4253   1.084       .  S
C4247      C4248   1.400       .  A
C4247      H4254   1.084       .  S
C4248      C4249   1.406       .  A
C4248      H4255   1.083       .  S
C4249      C4250   1.406       .  A
C4250      H4256   1.084       .  S
C4257      C4258   1.407       .  A
C4257      C4262   1.408       .  A
C4258      C4259   1.396       .  A
C4258      H4267   1.083       .  S
C4259      C4260   1.400       .  A
C4259      H4268   1.084       .  S
C4260      C4266   1.406       .  A
C4260      C4261   1.414       .  A
C4261      C4263   1.402       .  A
C4261      C4262   1.408       .  A
C4262      H4269   1.084       .  S
C4263      C4264   1.399       .  A
C4263      H4270   1.084       .  S
C4264      C4265   1.408       .  A
C4264      H4271   1.083       .  S
C4265      C4266   1.406       .  A
C4266      H4272   1.084       .  S
C4273      C4274   1.407       .  A
C4273      C4278   1.408       .  A
C4274      C4275   1.396       .  A
C4274      H4283   1.083       .  S
C4275      C4276   1.400       .  A
C4275      H4284   1.084       .  S
C4276      C4282   1.404       .  A
C4276      C4277   1.414       .  A
C4277      C4279   1.403       .  A
C4277      C4278   1.408       .  A
C4278      H4285   1.084       .  S
C4279      C4280   1.400       .  A
C4279      H4286   1.084       .  S
C4280      C4281   1.407       .  A
C4280      H4287   1.083       .  S
C4281      C4282   1.405       .  A
C4282      H4288   1.084       .  S
C4289      C4294   1.404       .  A
C4290      C4291   1.395       .  A
C4290      H4299   1.083       .  S
C4291      C4292   1.400       .  A
C4291      H4300   1.084       .  S
C4292      C4298   1.405       .  A
C4293      C4295   1.400       .  A
C4293      C4294   1.405       .  A
C4294      H4301   1.084       .  S
C4295      C4296   1.396       .  A
C4295      H4302   1.084       .  S
C4296      C4297   1.407       .  A
C4296      H4303   1.083       .  S
C4298      H4304   1.084       .  S
C4305      C4306   1.403       .  A
C4306      C4307   1.393       .  A
C4306      H4315   1.083       .  S
C4307      C4308   1.400       .  A
C4307      H4316   1.084       .  S
C4308      C4314   1.399       .  A
C4309      C4311   1.406       .  A
C4309      C4310   1.410       .  A
C4310      H4317   1.084       .  S
C4311      C4312   1.403       .  A
C4311      H4318   1.083       .  S
C4312      H4319   1.083       .  S
C4313      C4314   1.404       .  A
C4314      H4320   1.085       .  S
C4321      C4322   1.408   1_455  A
C4322      C4323   1.397       .  A
C4322      H4331   1.083       .  S
C4323      C4324   1.400       .  A
C4323      H4332   1.084       .  S
C4324      C4330   1.406       .  A
C4325      C4327   1.399       .  A
C4325      C4326   1.404       .  A
C4326      H4333   1.084       .  S
C4327      C4328   1.395       .  A
C4327      H4334   1.084       .  S
C4328      H4335   1.083       .  S
C4329      C4330   1.405   1_455  A
C4330      H4336   1.084       .  S
C4337      C4338   1.406   1_455  A
C4338      C4339   1.391       .  A
C4338      H4347   1.083       .  S
C4339      C4340   1.398   1_655  A
C4339      H4348   1.084       .  S
C4340      C4346   1.398       .  A
C4341      C4343   1.406       .  A
C4341      C4342   1.409       .  A
C4342      H4349   1.084       .  S
C4343      C4344   1.403       .  A
C4343      H4350   1.083       .  S
C4344      H4351   1.083       .  S
C4345      C4346   1.403       .  A
C4346      H4352   1.085   1_455  S
C4353      C4358   1.408       .  A
C4354      C4355   1.397       .  A
C4354      H4363   1.083       .  S
C4355      C4356   1.402   1_655  A
C4355      H4364   1.084       .  S
C4356      C4362   1.402       .  A
C4357      C4359   1.403       .  A
C4357      C4358   1.403       .  A
C4358      H4365   1.084       .  S
C4359      C4360   1.399       .  A
C4359      H4366   1.084       .  S
C4360      H4367   1.083       .  S
C4361      C4362   1.407       .  A
C4362      H4368   1.084   1_455  S
C4369      C4370   1.407       .  A
C4370      C4371   1.397       .  A
C4370      H4379   1.083       .  S
C4371      C4372   1.401       .  A
C4371      H4380   1.084       .  S
C4372      C4378   1.404       .  A
C4373      C4375   1.401   1_455  A
C4373      C4374   1.405   1_455  A
C4374      H4381   1.084       .  S
C4375      C4376   1.397       .  A
C4375      H4382   1.084       .  S
C4376      C4377   1.407   1_655  A
C4376      H4383   1.083       .  S
C4378      H4384   1.084       .  S
C4385      C4390   1.405       .  A
C4386      C4387   1.396       .  A
C4386      H4395   1.083       .  S
C4387      C4388   1.400   1_665  A
C4387      H4396   1.084       .  S
C4388      C4394   1.406   1_455  A
C4389      C4391   1.400       .  A
C4389      C4390   1.406       .  A
C4390      H4397   1.084       .  S
C4391      C4392   1.397       .  A
C4391      H4398   1.084       .  S
C4392      C4393   1.407       .  A
C4392      H4399   1.083       .  S
C4394      H4400   1.084   1_545  S
C4401      C4402   1.407       .  A
C4402      C4403   1.397       .  A
C4402      H4411   1.083       .  S
C4403      C4404   1.401       .  A
C4403      H4412   1.084       .  S
C4404      C4410   1.408       .  A
C4405      C4407   1.402       .  A
C4405      C4406   1.409       .  A
C4406      H4413   1.084       .  S
C4407      C4408   1.399       .  A
C4407      H4414   1.084       .  S
C4408      H4415   1.083       .  S
C4409      C4410   1.405       .  A
C4410      H4416   1.084       .  S
