geometry optimzed in LAMMPS
_audit_creation_date              2020-12-01 
_audit_creation_method            'lammps2cif' 
_symmetry_space_group_name_H-M    'P1' 
_symmetry_Int_Tables_number       1 
_symmetry_cell_setting            triclinic 
loop_ 
_symmetry_equiv_pos_as_xyz 
  x,y,z 
_cell_length_a                    45.69470236 
_cell_length_b                    45.65233914684735 
_cell_length_c                    36.969841799738404 
_cell_angle_alpha                 89.97165953333528 
_cell_angle_beta                  89.98980984693708 
_cell_angle_gamma                 120.08837014452621 
loop_ 
_atom_site_label 
_atom_site_type_symbol 
_atom_site_fract_x 
_atom_site_fract_y 
_atom_site_fract_z 
_atom_site_charge 
C1          C  0.46403897  0.48274189  0.11968436     0.04000
C2          C  0.48226234  0.01838163  0.11954970    -0.12200
C3          C  0.01785835  0.03627438  0.11942871     0.01500
C4          C  0.03521920  0.01810829  0.11947023    -0.10700
C5          C  0.01747950  0.48249715  0.11964922     0.04000
C6          C  0.48189109  0.46501923  0.11972449    -0.10100
H7          H  0.46872178  0.03223167  0.11959667     0.09600
H8          H  0.06263571  0.03173780  0.11945830     0.07100
H9          H  0.46807190  0.43758073  0.11988309     0.07000
C10         C  0.14852972  0.35173470  0.11851237     0.04000
C11         C  0.13109065  0.31626041  0.11864413    -0.12200
C12         C  0.14899570  0.29876919  0.11888276     0.01500
C13         C  0.18438338  0.31686564  0.11884793    -0.10700
C14         C  0.20187006  0.35226091  0.11876615     0.04000
C15         C  0.18391246  0.36964614  0.11853041    -0.10100
H16         H  0.10367101  0.30231448  0.11879195     0.09600
H17         H  0.19832899  0.30341358  0.11912074     0.07100
H18         H  0.19747250  0.39709319  0.11861480     0.07000
C19         C  0.34427330  0.32397425  0.05463434     0.04000
C20         C  0.33902593  0.29337027  0.06929549    -0.12200
C21         C  0.34543895  0.27155722  0.04843551     0.01500
C22         C  0.35759369  0.28075132  0.01320516    -0.10700
C23         C  0.36281475  0.31129964  0.49788247     0.04000
C24         C  0.35543025  0.33253889  0.01862126    -0.10100
H25         H  0.33046528  0.28680024  0.09701319     0.09600
H26         H  0.36313268  0.26389172  0.49783457     0.07100
H27         H  0.35981338  0.35636417  0.50747038     0.07000
O28         O  0.14430585  0.46512886  0.06540072    -0.77600
C29         C  0.12993082  0.37011189  0.11908230     0.83400
O30         O  0.03561615  0.37900374  0.04768628    -0.78700
O31         O  0.03655934  0.35744161  0.17789503    -0.80200
O32         O  0.12006075  0.46553969  0.19404340    -0.80000
O33         O  0.14174626  0.49894466  0.10721960    -0.78600
Zn34       Zn  0.11462939  0.41866310  0.08427734     1.55700
O35         O  0.11238023  0.41344545  0.19825702    -0.80000
Cd36       Cd  0.10253457  0.46414207  0.14052529     1.59700
Cd37       Cd  0.03698865  0.39776975  0.10049483     1.59600
O38         O  0.06443732  0.47657441  0.13684125    -0.80000
O39         O  0.08394891  0.41791024  0.11963236    -1.90500
Cd40       Cd  0.08326357  0.38682811  0.15622923     1.59900
O41         O  0.02362460  0.43535552  0.10323334    -0.80000
O42         O  0.10238954  0.35786314  0.13671126    -0.78600
C43         C  0.05928654  0.37797248  0.03006735     0.83900
C44         C  0.15314958  0.49444457  0.07743487     0.83500
O45         O  0.14179670  0.39810515  0.10221048    -0.77600
C46         C  0.12312414  0.44281314  0.21124369     0.84400
O47         O  0.08913648  0.39128145  0.04245382    -0.77700
C48         C  0.03618805  0.46371883  0.11993813     0.84500
C49         C  0.00737514  0.34818019  0.16540685     0.84800
O50         O  0.00299408  0.35893451  0.13507985    -0.80100
C51         C  0.18918409  0.05476569  0.49850711     0.04000
C52         C  0.16782231  0.02624661  0.01940579    -0.12200
C53         C  0.17642100  0.02367110  0.05536719     0.01500
C54         C  0.20711895  0.04890332  0.06984567    -0.10700
C55         C  0.22906678  0.07702573  0.04885458     0.04000
C56         C  0.21985347  0.08009120  0.01367553    -0.10100
H57         H  0.14398231  0.50676426  0.50833421     0.09600
H58         H  0.21382163  0.04674645  0.09745377     0.07100
H59         H  0.23688993  0.10235087  0.49813320     0.07000
C60         C  0.47815347  0.32416774  0.18704330     0.04000
C61         C  0.45340634  0.29399991  0.17147816    -0.12200
C62         C  0.42585917  0.26981488  0.19197948     0.01500
C63         C  0.42317991  0.27695152  0.22830460    -0.10700
C64         C  0.44755538  0.30788633  0.24420877     0.04000
C65         C  0.47552543  0.33089559  0.22359053    -0.10100
H66         H  0.45610867  0.28932846  0.14327317     0.09600
H67         H  0.40147872  0.25883019  0.24381429     0.07100
H68         H  0.99445792  0.35466178  0.23536669     0.07000
O69         O  0.31346774  0.21878424  0.07796050    -0.77600
C70         C  0.26087320  0.10373264  0.06447662     0.83400
O71         O  0.28707592  0.16110216  0.19196663    -0.78700
O72         O  0.33318364  0.09876742  0.14036018    -0.80200
O73         O  0.40616068  0.18813070  0.07740420    -0.80000
O74         O  0.36741909  0.23629322  0.06506843    -0.78600
Zn75       Zn  0.29679639  0.17258264  0.09988050     1.55700
O76         O  0.36878855  0.13405903  0.06558430    -0.80000
Cd77       Cd  0.37591338  0.20526328  0.09917076     1.59700
Cd78       Cd  0.33404238  0.16787405  0.17356171     1.59600
O79         O  0.40270785  0.23656124  0.14010519    -0.80000
O80         O  0.33338730  0.16790635  0.11885161    -1.90500
Cd81       Cd  0.32895537  0.12567760  0.09928115     1.59900
O82         O  0.37462950  0.21497919  0.19157851    -0.80000
O83         O  0.28188322  0.09572067  0.07688500    -0.78600
C84         C  0.26383455  0.16248500  0.17390774     0.83900
C85         C  0.34179384  0.24039186  0.06434649     0.83500
O86         O  0.26592039  0.13381183  0.06665962    -0.77600
C87         C  0.39875776  0.15940308  0.06448757     0.84400
O88         O  0.26653627  0.16787180  0.14006199    -0.77700
C89         C  0.39955962  0.23850777  0.17398816     0.84500
C90         C  0.33885114  0.10222104  0.17414486     0.84800
O91         O  0.34071951  0.12739205  0.19160175    -0.80100
O92         O  0.31890621  0.35704427  0.06471583    -0.77600
C93         C  0.23882355  0.37102091  0.11944156     0.83400
O94         O  0.34306343  0.46636112  0.04834770    -0.78700
O95         O  0.31967049  0.46508207  0.17790165    -0.80200
O96         O  0.34374590  0.38021360  0.19362387    -0.80000
O97         O  0.35457646  0.35848167  0.10670757    -0.78600
Zn98       Zn  0.30267658  0.38694505  0.08424413     1.55700
O99         O  0.30035308  0.38933539  0.19878059    -0.80000
Cd100      Cd  0.35986399  0.39793956  0.14018587     1.59700
Cd101      Cd  0.36014953  0.46430739  0.10104089     1.59600
O102        O  0.41078229  0.43563287  0.13649617    -0.80000
O103        O  0.33264593  0.41723067  0.11989928    -1.90500
Cd104      Cd  0.30235707  0.41813819  0.15660457     1.59900
O105        O  0.41091364  0.47706894  0.10360302    -0.80000
O106        O  0.25402809  0.39834495  0.13748347    -0.78600
C107        C  0.31810182  0.44299452  0.03069024     0.83900
C108        C  0.33879018  0.34750661  0.07678503     0.83500
O109        O  0.25499198  0.35957385  0.10207692    -0.77600
C110        C  0.31847195  0.37782875  0.21127034     0.84400
O111        O  0.30112016  0.41306995  0.04291066    -0.77700
C112        C  0.42648010  0.46409982  0.11992781     0.84500
C113        C  0.34030856  0.49425606  0.16569526     0.84800
O114        O  0.35594530  0.49852654  0.13572948    -0.80100
C115        C  0.36111154  0.05466974  0.24414297     0.04000
C116        C  0.35573534  0.02651741  0.22363252    -0.12200
C117        C  0.34585778  0.02363079  0.18724436     0.01500
C118        C  0.34029604  0.04829366  0.17174019    -0.10700
C119        C  0.34405437  0.07603152  0.19213669     0.04000
C120        C  0.35448260  0.07900561  0.22829216    -0.10100
H121        H  0.36061221  0.50761742  0.23536215     0.09600
H122        H  0.33251763  0.04538139  0.14365927     0.07100
H123        H  0.35837536  0.10083057  0.24373248     0.07000
C124        C  0.17756903  0.15419876  0.18544933     0.04000
C125        C  0.17058206  0.14495098  0.22203926    -0.12200
C126        C  0.19354790  0.14042965  0.24315105     0.01500
C127        C  0.22465591  0.14721232  0.22761957    -0.10700
C128        C  0.23209035  0.15693757  0.19125973     0.04000
C129        C  0.20792848  0.15981930  0.17025542    -0.10100
H130        H  0.14674732  0.14010280  0.23356198     0.09600
H131        H  0.24277730  0.14402591  0.24352093     0.07100
H132        H  0.21286806  0.16717866  0.14204520     0.07000
O133        O  0.03724956  0.18075270  0.06560798    -0.77600
C134        C  0.13095903  0.26171627  0.11955018     0.83400
O135        O  0.12202502  0.15795380  0.04685833    -0.78700
O136        O  0.14597818  0.18094399  0.17591119    -0.80200
O137        O  0.03749759  0.15666550  0.19462369    -0.80000
O138        O  0.00333085  0.14540933  0.10812361    -0.78600
Zn139      Zn  0.08347164  0.19773438  0.08458920     1.55700
O140        O  0.09021382  0.20004805  0.19896986    -0.80000
Cd141      Cd  0.03806394  0.14040572  0.14097005     1.58100
Cd142      Cd  0.10341206  0.14021617  0.09977458     1.59600
O143        O  0.02469279  0.08951703  0.13706527    -0.80000
O144        O  0.08423994  0.16764004  0.11970005    -1.90500
Cd145      Cd  0.11603467  0.19816787  0.15579622     1.59900
O146        O  0.06503928  0.08941774  0.10240419    -0.80000
O147        O  0.14380705  0.24667881  0.13660523    -0.78600
C148        C  0.12370318  0.18322934  0.02973060     0.83900
C149        C  0.00792508  0.16088437  0.07799177     0.83500
O150        O  0.10292123  0.24525537  0.10295558    -0.77600
C151        C  0.06077574  0.18193577  0.21200413     0.84400
O152        O  0.11108897  0.20020401  0.04268037    -0.77700
C153        C  0.03690993  0.07383952  0.11959268     0.84500
C154        C  0.15393248  0.15990346  0.16378743     0.84800
O155        O  0.14203841  0.14399111  0.13404126    -0.80100
C156        C  0.47888752  0.15523797  0.05585836     0.04000
C157        C  0.45356899  0.16053562  0.07034680    -0.12200
C158        C  0.42590385  0.15502212  0.04901305     0.01500
C159        C  0.42340875  0.14366210  0.01352657    -0.10700
C160        C  0.44868051  0.13830219  0.49842681     0.04000
C161        C  0.47676425  0.14480139  0.01963258    -0.10100
H162        H  0.45530109  0.16874388  0.09816633     0.09600
H163        H  0.40144005  0.13888377  0.49777792     0.07100
H164        H  0.99622091  0.14043664  0.50858254     0.07000
C165        C  0.48242566  0.46516816  0.36872046     0.04000
C166        C  0.46478499  0.48310471  0.36889664    -0.12200
C167        C  0.48229990  0.01872476  0.36894126     0.01500
C168        C  0.01789038  0.03642917  0.36870017    -0.10700
C169        C  0.03598096  0.01898715  0.36853710     0.04000
C170        C  0.01802710  0.48334677  0.36852009    -0.10100
H171        H  0.43737071  0.46931968  0.36918287     0.09600
H172        H  0.03155521  0.06386884  0.36885273     0.07100
H173        H  0.03180124  0.46972975  0.36854602     0.07000
O174        O  0.24499550  0.14276719  0.39091150    -0.77600
C175        C  0.15984317  0.15482935  0.41356178     0.83400
O176        O  0.15508871  0.03644265  0.44412015    -0.78700
O177        O  0.08938089  0.06633531  0.35228805    -0.80200
O178        O  0.20268247  0.11443809  0.29314297    -0.80000
O179        O  0.24621232  0.10348978  0.35668209    -0.78600
Zn180      Zn  0.19660443  0.11596600  0.40725121     1.55700
O181        O  0.15845074  0.12246947  0.29686274    -0.80000
Cd182      Cd  0.19862672  0.08490102  0.33578956     1.59700
Cd183      Cd  0.13960052  0.03847077  0.39059144     1.59600
O184        O  0.18119895  0.03790936  0.31473314    -0.80000
O185        O  0.16732446  0.08554565  0.37145279    -1.90500
Cd186      Cd  0.14034748  0.10455688  0.34998294     1.59900
O187        O  0.14479603  0.00432328  0.35679554    -0.80000
O188        O  0.14422703  0.14363245  0.38354686    -0.78600
C189        C  0.17952991  0.06021004  0.46191790     0.83900
C190        C  0.26132591  0.13090363  0.37456263     0.83500
O191        O  0.18009273  0.14581967  0.42569969    -0.77600
C192        C  0.18437584  0.12544711  0.27994555     0.84400
O193        O  0.19648144  0.08993856  0.44922442    -0.77700
C194        C  0.16064475  0.00870809  0.32695859     0.84500
C195        C  0.07352511  0.03794383  0.36902336     0.84800
O196        O  0.08891392  0.02534028  0.38634175    -0.80100
C197        C  0.15437622  0.17848042  0.43562743     0.04000
C198        C  0.16013925  0.20912832  0.42095509    -0.12200
C199        C  0.15658524  0.23282669  0.44219895     0.01500
C200        C  0.14604131  0.22458560  0.47826836    -0.10700
C201        C  0.13922359  0.19322230  0.49325277     0.04000
C202        C  0.14443562  0.17079485  0.47195614    -0.10100
H203        H  0.16797444  0.21458086  0.39292067     0.09600
H204        H  0.14228398  0.24225605  0.49436005     0.07100
H205        H  0.13942508  0.14674040  0.48307494     0.07000
C206        C  0.05517024  0.19115379  0.24876934     0.04000
C207        C  0.02659945  0.16954850  0.26947634    -0.12200
C208        C  0.02390667  0.17780327  0.30555591     0.01500
C209        C  0.04912123  0.20830142  0.32040877    -0.10700
C210        C  0.07730912  0.23042080  0.29966846     0.04000
C211        C  0.08044809  0.22164296  0.26433750    -0.10100
H212        H  0.00709776  0.14586034  0.25811723     0.09600
H213        H  0.04684968  0.21476386  0.34808632     0.07100
H214        H  0.10276570  0.23889321  0.24902143     0.07000
O215        O  0.35945661  0.10416707  0.39087883    -0.77600
C216        C  0.34814496  0.00869127  0.41521801     0.83400
O217        O  0.46663116  0.12170488  0.44432862    -0.78700
O218        O  0.43515900  0.02507789  0.35312468    -0.80200
O219        O  0.38887753  0.09083719  0.29294813    -0.80000
O220        O  0.39811235  0.14467452  0.35597294    -0.78600
Zn221      Zn  0.38728223  0.08406150  0.40775349     1.55700
O222        O  0.37902427  0.03795056  0.29808716    -0.80000
Cd223      Cd  0.41805812  0.11663568  0.33569383     1.59700
Cd224      Cd  0.46414576  0.10373339  0.39092712     1.59600
O225        O  0.46536983  0.14657508  0.31515287    -0.80000
O226        O  0.41723481  0.08480071  0.37173770    -1.90500
Cd227      Cd  0.39753712  0.03847126  0.35093502     1.59900
O228        O  0.49850428  0.14270071  0.35695548    -0.80000
O229        O  0.35860210  0.00396203  0.38490093    -0.78600
C230        C  0.44321471  0.12323478  0.46182347     0.83900
C231        C  0.37071362  0.13204096  0.37396930     0.83500
O232        O  0.35793102  0.03809783  0.42746943    -0.77600
C233        C  0.37676076  0.06104151  0.28058268     0.84400
O234        O  0.41363767  0.11098376  0.44898604    -0.77700
C235        C  0.49441923  0.15461622  0.32729625     0.84500
C236        C  0.46357458  0.03749140  0.36966702     0.84800
O237        O  0.47651509  0.06563089  0.38682239    -0.80100
C238        C  0.02286080  0.34663370  0.43657901     0.04000
C239        C  0.02540737  0.35658631  0.47288904    -0.12200
C240        C  0.05347250  0.36232597  0.99370100     0.01500
C241        C  0.07813464  0.35597092  0.47829880    -0.10700
C242        C  0.07549344  0.34535775  0.44224300     0.04000
C243        C  0.04779410  0.34126319  0.42148399    -0.10100
H244        H  0.50633678  0.36135017  0.48430875     0.09600
H245        H  0.09989266  0.36015561  0.49403767     0.07100
H246        H  0.04515528  0.33342751  0.39344458     0.07000
O247        O  0.13391946  0.26714205  0.31789908    -0.77600
C248        C  0.23994352  0.34272067  0.31562512     0.83400
O249        O  0.16063227  0.28796948  0.44334078    -0.78700
O250        O  0.23633219  0.40391871  0.39112742    -0.80200
O251        O  0.13420852  0.36964556  0.31603199    -0.80000
O252        O  0.09582841  0.28306607  0.32798863    -0.78600
Zn253      Zn  0.17244510  0.29798287  0.35128682     1.55700
O254        O  0.18807104  0.40724609  0.32821124    -0.80000
Cd255      Cd  0.12576584  0.33014188  0.35022593     1.59700
Cd256      Cd  0.16758624  0.33527092  0.42490145     1.59600
O257        O  0.09875734  0.33459139  0.39091238    -0.80000
O258        O  0.16779415  0.33459168  0.37017313    -1.90500
Cd259      Cd  0.20506594  0.37704293  0.35032079     1.59900
O260        O  0.12694800  0.34209382  0.44246004    -0.80000
O261        O  0.23589256  0.36838676  0.31626379    -0.78600
C262        C  0.16213265  0.26479290  0.42518247     0.83900
C263        C  0.10388860  0.26209940  0.31557870     0.83500
O264        O  0.21846687  0.31446214  0.32945855    -0.77600
C265        C  0.15945918  0.39966276  0.31491953     0.84400
O266        O  0.16765369  0.26771080  0.39137950    -0.77700
C267        C  0.10192753  0.34025033  0.42469303     0.84500
C268        C  0.23837512  0.40092006  0.42501582     0.84800
O269        O  0.21486989  0.37605368  0.44276430    -0.80100
O270        O  0.39747638  0.25640834  0.39117819    -0.77600
C271        C  0.49372628  0.34127682  0.41469474     0.83400
O272        O  0.37947058  0.34566525  0.44359505    -0.78700
O273        O  0.47641303  0.41174978  0.35288347    -0.80200
O274        O  0.41163417  0.29875635  0.29338744    -0.80000
O275        O  0.35708769  0.25475253  0.35639760    -0.78600
Zn276      Zn  0.41819828  0.30457767  0.40777720     1.55700
O277        O  0.46404235  0.34281773  0.29791201    -0.80000
Cd278      Cd  0.38564407  0.30242134  0.33565142     1.59700
Cd279      Cd  0.39771608  0.36126386  0.39028778     1.59600
O280        O  0.35568469  0.31930019  0.31434677    -0.80000
O281        O  0.41726259  0.33368983  0.37163127    -1.90500
Cd282      Cd  0.46350240  0.36078099  0.35073880     1.59900
O283        O  0.35851599  0.35579840  0.35620754    -0.80000
O284        O  0.49827608  0.35673607  0.38455421    -0.78600
C285        C  0.37844035  0.32111842  0.46150046     0.83900
C286        C  0.36950405  0.23988433  0.37445993     0.83500
O287        O  0.46439501  0.32124780  0.42694735    -0.77600
C288        C  0.44122526  0.31698950  0.28072760     0.84400
O289        O  0.39140783  0.30426310  0.44915673    -0.77700
C290        C  0.34695755  0.33977629  0.32649242     0.84500
C291        C  0.46371327  0.42756740  0.36923965     0.84800
O292        O  0.43544643  0.41208963  0.38614744    -0.80100
C293        C  0.32333681  0.34536984  0.30475026     0.04000
C294        C  0.33116202  0.35582862  0.26844282    -0.12200
C295        C  0.30938390  0.36258116  0.24787885     0.01500
C296        C  0.27910244  0.35744027  0.26373530    -0.10700
C297        C  0.27078856  0.34617432  0.29931650     0.04000
C298        C  0.29306204  0.34034128  0.31996939    -0.10100
H299        H  0.35476770  0.36006243  0.25687574     0.09600
H300        H  0.26179814  0.36248562  0.24857476     0.07100
H301        H  0.28704438  0.33227988  0.34789752     0.07000
C302        C  0.32412190  0.47969192  0.43716593     0.04000
C303        C  0.29376565  0.45489774  0.42197484    -0.12200
C304        C  0.26982220  0.42734014  0.44272240     0.01500
C305        C  0.27743396  0.42471282  0.47889124    -0.10700
C306        C  0.30853650  0.44917103  0.99438011     0.04000
C307        C  0.33125664  0.47714246  0.47357859    -0.10100
H308        H  0.28880401  0.45752803  0.39384996     0.09600
H309        H  0.25956754  0.40301951  0.49460783     0.07100
H310        H  0.35516857  0.99606857  0.48506650     0.07000
C311        C  0.13819844  0.44878202  0.24791420     0.04000
C312        C  0.14378946  0.42377998  0.26343025    -0.12200
C313        C  0.15506983  0.42663148  0.29897745     0.01500
C314        C  0.16038885  0.45441287  0.31996021    -0.10700
C315        C  0.15487945  0.47947330  0.30511083     0.04000
C316        C  0.14442419  0.47699024  0.26883335    -0.10100
H317        H  0.13918377  0.40167887  0.24800885     0.09600
H318        H  0.16860680  0.45643265  0.34781501     0.07100
H319        H  0.13994278  0.99629215  0.25750758     0.07000
C320        C  0.35178228  0.15006074  0.37524245     0.04000
C321        C  0.31634667  0.13208411  0.37553189    -0.12200
C322        C  0.29834152  0.14949147  0.37578583     0.01500
C323        C  0.31590427  0.18490123  0.37596227    -0.10700
C324        C  0.35128182  0.20291901  0.37568217     0.04000
C325        C  0.36915754  0.18547051  0.37541590    -0.10100
H326        H  0.30282694  0.10464329  0.37511924     0.09600
H327        H  0.30205433  0.19845105  0.37582304     0.07100
H328        H  0.39657881  0.19944785  0.37493388     0.07000
C329        C  0.46403904  0.48274196  0.61968432     0.04000
C330        C  0.48226242  0.01838160  0.61954971    -0.12200
C331        C  0.01785839  0.03627440  0.61942866     0.01500
C332        C  0.03521920  0.01810829  0.61947029    -0.10700
C333        C  0.01747950  0.48249716  0.61964930     0.04000
C334        C  0.48189111  0.46501919  0.61972452    -0.10100
H335        H  0.46872161  0.03223189  0.61959679     0.09600
H336        H  0.06263605  0.03173794  0.61945841     0.07100
H337        H  0.46807224  0.43758132  0.61988311     0.07000
C338        C  0.14852972  0.35173472  0.61851247     0.04000
C339        C  0.13109074  0.31626046  0.61864406    -0.12200
C340        C  0.14899570  0.29876920  0.61888283     0.01500
C341        C  0.18438337  0.31686560  0.61884800    -0.10700
C342        C  0.20187005  0.35226086  0.61876607     0.04000
C343        C  0.18391244  0.36964604  0.61853045    -0.10100
H344        H  0.10367055  0.30231426  0.61879180     0.09600
H345        H  0.19832895  0.30341353  0.61912089     0.07100
H346        H  0.19747278  0.39709365  0.61861486     0.07000
C347        C  0.34427334  0.32397429  0.55463425     0.04000
C348        C  0.33902579  0.29337025  0.56929528    -0.12200
C349        C  0.34543885  0.27155716  0.54843545     0.01500
C350        C  0.35759370  0.28075128  0.51320513    -0.10700
C351        C  0.36281478  0.31129969  0.99788255     0.04000
C352        C  0.35543026  0.33253888  0.51862115    -0.10100
H353        H  0.33046492  0.28680011  0.59701347     0.09600
H354        H  0.36313260  0.26389170  0.99783447     0.07100
H355        H  0.35981335  0.35636418  0.00747053     0.07000
O356        O  0.14430590  0.46512879  0.56540078    -0.77600
C357        C  0.12993082  0.37011192  0.61908241     0.83400
O358        O  0.03561625  0.37900385  0.54768632    -0.78700
O359        O  0.03655936  0.35744158  0.67789509    -0.80200
O360        O  0.12006076  0.46553967  0.69404347    -0.80000
O361        O  0.14174626  0.49894462  0.60721956    -0.78600
Zn362      Zn  0.11462942  0.41866305  0.58427740     1.55700
O363        O  0.11238030  0.41344547  0.69825699    -0.80000
Cd364      Cd  0.10253459  0.46414203  0.64052535     1.59700
Cd365      Cd  0.03698868  0.39776972  0.60049490     1.59600
O366        O  0.06443739  0.47657448  0.63684112    -0.80000
O367        O  0.08394893  0.41791025  0.61963230    -1.90500
Cd368      Cd  0.08326352  0.38682827  0.65622931     1.59900
O369        O  0.02362462  0.43535553  0.60323330    -0.80000
O370        O  0.10238952  0.35786327  0.63671135    -0.78600
C371        C  0.05928658  0.37797247  0.53006736     0.83900
C372        C  0.15314961  0.49444451  0.57743486     0.83500
O373        O  0.14179675  0.39810515  0.60221055    -0.77600
C374        C  0.12312418  0.44281313  0.71124371     0.84400
O375        O  0.08913653  0.39128140  0.54245376    -0.77700
C376        C  0.03618807  0.46371884  0.61993811     0.84500
C377        C  0.00737517  0.34818011  0.66540685     0.84800
O378        O  0.00299411  0.35893448  0.63507989    -0.80100
C379        C  0.18918413  0.05476567  0.99850716     0.04000
C380        C  0.16782222  0.02624662  0.51940578    -0.12200
C381        C  0.17642107  0.02367116  0.55536714     0.01500
C382        C  0.20711897  0.04890340  0.56984565    -0.10700
C383        C  0.22906679  0.07702577  0.54885452     0.04000
C384        C  0.21985347  0.08009116  0.51367543    -0.10100
H385        H  0.14398196  0.50676382  0.00833386     0.09600
H386        H  0.21382160  0.04674659  0.59745357     0.07100
H387        H  0.23688987  0.10235091  0.99813338     0.07000
C388        C  0.47815349  0.32416769  0.68704326     0.04000
C389        C  0.45340636  0.29399986  0.67147809    -0.12200
C390        C  0.42585921  0.26981487  0.69197948     0.01500
C391        C  0.42317994  0.27695158  0.72830458    -0.10700
C392        C  0.44755531  0.30788645  0.74420870     0.04000
C393        C  0.47552535  0.33089563  0.72359041    -0.10100
H394        H  0.45610863  0.28932842  0.64327333     0.09600
H395        H  0.40147872  0.25883020  0.74381440     0.07100
H396        H  0.99445804  0.35466184  0.73536663     0.07000
O397        O  0.31346777  0.21878421  0.57796037    -0.77600
C398        C  0.26087320  0.10373262  0.56447663     0.83400
O399        O  0.28707592  0.16110229  0.69196665    -0.78700
O400        O  0.33318358  0.09876735  0.64036019    -0.80200
O401        O  0.40616071  0.18813064  0.57740429    -0.80000
O402        O  0.36741911  0.23629319  0.56506832    -0.78600
Zn403      Zn  0.29679648  0.17258278  0.59988037     1.55700
O404        O  0.36878854  0.13405898  0.56558441    -0.80000
Cd405      Cd  0.37591339  0.20526323  0.59917082     1.59700
Cd406      Cd  0.33404239  0.16787404  0.67356178     1.59600
O407        O  0.40270787  0.23656118  0.64010522    -0.80000
O408        O  0.33338720  0.16790635  0.61885158    -1.90500
Cd409      Cd  0.32895523  0.12567755  0.59928123     1.59900
O410        O  0.37462945  0.21497931  0.69157854    -0.80000
O411        O  0.28188316  0.09572058  0.57688506    -0.78600
C412        C  0.26383452  0.16248506  0.67390770     0.83900
C413        C  0.34179386  0.24039185  0.56434643     0.83500
O414        O  0.26592043  0.13381181  0.56665970    -0.77600
C415        C  0.39875777  0.15940303  0.56448764     0.84400
O416        O  0.26653629  0.16787196  0.64006196    -0.77700
C417        C  0.39955964  0.23850779  0.67398817     0.84500
C418        C  0.33885109  0.10222098  0.67414486     0.84800
O419        O  0.34071951  0.12739202  0.69160172    -0.80100
O420        O  0.31890617  0.35704422  0.56471572    -0.77600
C421        C  0.23882351  0.37102084  0.61944148     0.83400
O422        O  0.34306348  0.46636117  0.54834779    -0.78700
O423        O  0.31967052  0.46508204  0.67790170    -0.80200
O424        O  0.34374598  0.38021370  0.69362390    -0.80000
O425        O  0.35457640  0.35848162  0.60670753    -0.78600
Zn426      Zn  0.30267660  0.38694500  0.58424401     1.55700
O427        O  0.30035306  0.38933534  0.69878065    -0.80000
Cd428      Cd  0.35986402  0.39793951  0.64018593     1.59700
Cd429      Cd  0.36014957  0.46430737  0.60104099     1.59600
O430        O  0.41078235  0.43563286  0.63649601    -0.80000
O431        O  0.33264591  0.41723060  0.61989937    -1.90500
Cd432      Cd  0.30235692  0.41813813  0.65660464     1.59900
O433        O  0.41091373  0.47706907  0.60360314    -0.80000
O434        O  0.25402798  0.39834492  0.63748335    -0.78600
C435        C  0.31810187  0.44299457  0.53069031     0.83900
C436        C  0.33879019  0.34750663  0.57678493     0.83500
O437        O  0.25499197  0.35957383  0.60207682    -0.77600
C438        C  0.31847198  0.37782875  0.71127037     0.84400
O439        O  0.30112024  0.41306998  0.54291071    -0.77700
C440        C  0.42648017  0.46409988  0.61992780     0.84500
C441        C  0.34030859  0.49425605  0.66569536     0.84800
O442        O  0.35594538  0.49852662  0.63572959    -0.80100
C443        C  0.36111150  0.05466972  0.74414297     0.04000
C444        C  0.35573535  0.02651735  0.72363258    -0.12200
C445        C  0.34585769  0.02363070  0.68724443     0.01500
C446        C  0.34029606  0.04829362  0.67174030    -0.10700
C447        C  0.34405434  0.07603148  0.69213668     0.04000
C448        C  0.35448247  0.07900549  0.72829216    -0.10100
H449        H  0.36061212  0.50761781  0.73536199     0.09600
H450        H  0.33251752  0.04538131  0.64365867     0.07100
H451        H  0.35837514  0.10083062  0.74373267     0.07000
C452        C  0.17756900  0.15419873  0.68544935     0.04000
C453        C  0.17058202  0.14495095  0.72203926    -0.12200
C454        C  0.19354789  0.14042965  0.74315098     0.01500
C455        C  0.22465581  0.14721226  0.72761945    -0.10700
C456        C  0.23209027  0.15693750  0.69125966     0.04000
C457        C  0.20792840  0.15981925  0.67025539    -0.10100
H458        H  0.14674730  0.14010280  0.73356202     0.09600
H459        H  0.24277758  0.14402578  0.74352113     0.07100
H460        H  0.21286800  0.16717870  0.64204505     0.07000
O461        O  0.03724946  0.18075282  0.56560795    -0.77600
C462        C  0.13095902  0.26171630  0.61955020     0.83400
O463        O  0.12202486  0.15795378  0.54685836    -0.78700
O464        O  0.14597816  0.18094401  0.67591130    -0.80200
O465        O  0.03749752  0.15666552  0.69462375    -0.80000
O466        O  0.00333089  0.14540932  0.60812360    -0.78600
Zn467      Zn  0.08347148  0.19773436  0.58458924     1.55700
O468        O  0.09021379  0.20004800  0.69896976    -0.80000
Cd469      Cd  0.03806396  0.14040568  0.64097013     1.58100
Cd470      Cd  0.10341191  0.14021613  0.59977445     1.59600
O471        O  0.02469283  0.08951702  0.63706517    -0.80000
O472        O  0.08423989  0.16763999  0.61969996    -1.90500
Cd473      Cd  0.11603469  0.19816782  0.65579606     1.59900
O474        O  0.06503930  0.08941771  0.60240407    -0.80000
O475        O  0.14380704  0.24667876  0.63660510    -0.78600
C476        C  0.12370303  0.18322930  0.52973061     0.83900
C477        C  0.00792504  0.16088439  0.57799178     0.83500
O478        O  0.10292128  0.24525547  0.60295546    -0.77600
C479        C  0.06077574  0.18193581  0.71200410     0.84400
O480        O  0.11108875  0.20020395  0.54268030    -0.77700
C481        C  0.03690998  0.07383951  0.61959260     0.84500
C482        C  0.15393249  0.15990352  0.66378748     0.84800
O483        O  0.14203845  0.14399127  0.63404123    -0.80100
C484        C  0.47888754  0.15523792  0.55585834     0.04000
C485        C  0.45356902  0.16053559  0.57034689    -0.12200
C486        C  0.42590386  0.15502207  0.54901304     0.01500
C487        C  0.42340879  0.14366203  0.51352662    -0.10700
C488        C  0.44868055  0.13830228  0.99842681     0.04000
C489        C  0.47676431  0.14480131  0.51963254    -0.10100
H490        H  0.45530108  0.16874363  0.59816568     0.09600
H491        H  0.40144042  0.13888389  0.99777820     0.07100
H492        H  0.99622125  0.14043656  0.00858236     0.07000
C493        C  0.48242568  0.46516816  0.86872035     0.04000
C494        C  0.46478494  0.48310465  0.86889648    -0.12200
C495        C  0.48229993  0.01872478  0.86894113     0.01500
C496        C  0.01789034  0.03642912  0.86870001    -0.10700
C497        C  0.03598097  0.01898719  0.86853698     0.04000
C498        C  0.01802714  0.48334671  0.86852011    -0.10100
H499        H  0.43737104  0.46931980  0.86918277     0.09600
H500        H  0.03155542  0.06386929  0.86885262     0.07100
H501        H  0.03180112  0.46972980  0.86854621     0.07000
O502        O  0.24499536  0.14276714  0.89091135    -0.77600
C503        C  0.15984316  0.15482937  0.91356174     0.83400
O504        O  0.15508861  0.03644266  0.94412022    -0.78700
O505        O  0.08938095  0.06633531  0.85228789    -0.80200
O506        O  0.20268249  0.11443816  0.79314291    -0.80000
O507        O  0.24621226  0.10348976  0.85668193    -0.78600
Zn508      Zn  0.19660428  0.11596595  0.90725130     1.55700
O509        O  0.15845081  0.12246963  0.79686265    -0.80000
Cd510      Cd  0.19862673  0.08490098  0.83578941     1.59700
Cd511      Cd  0.13960062  0.03847091  0.89059131     1.59600
O512        O  0.18119902  0.03790930  0.81473315    -0.80000
O513        O  0.16732452  0.08554570  0.87145275    -1.90500
Cd514      Cd  0.14034761  0.10455704  0.84998280     1.59900
O515        O  0.14479587  0.00432326  0.85679540    -0.80000
O516        O  0.14422711  0.14363251  0.88354676    -0.78600
C517        C  0.17952990  0.06021000  0.96191796     0.83900
C518        C  0.26132581  0.13090358  0.87456253     0.83500
O519        O  0.18009261  0.14581962  0.92569979    -0.77600
C520        C  0.18437588  0.12544720  0.77994548     0.84400
O521        O  0.19648146  0.08993851  0.94922448    -0.77700
C522        C  0.16064474  0.00870804  0.82695857     0.84500
C523        C  0.07352515  0.03794387  0.86902328     0.84800
O524        O  0.08891394  0.02534035  0.88634176    -0.80100
C525        C  0.15437624  0.17848046  0.93562735     0.04000
C526        C  0.16013929  0.20912834  0.92095490    -0.12200
C527        C  0.15658532  0.23282671  0.94219890     0.01500
C528        C  0.14604138  0.22458563  0.97826830    -0.10700
C529        C  0.13922365  0.19322234  0.99325272     0.04000
C530        C  0.14443573  0.17079491  0.97195609    -0.10100
H531        H  0.16797423  0.21458071  0.89292108     0.09600
H532        H  0.14228407  0.24225607  0.99435996     0.07100
H533        H  0.13942529  0.14674061  0.98307484     0.07000
C534        C  0.05517025  0.19115385  0.74876931     0.04000
C535        C  0.02659949  0.16954853  0.76947634    -0.12200
C536        C  0.02390665  0.17780326  0.80555592     0.01500
C537        C  0.04912124  0.20830142  0.82040877    -0.10700
C538        C  0.07730912  0.23042077  0.79966850     0.04000
C539        C  0.08044823  0.22164314  0.76433738    -0.10100
H540        H  0.00709779  0.14586034  0.75811724     0.09600
H541        H  0.04684967  0.21476391  0.84808633     0.07100
H542        H  0.10276479  0.23889263  0.74902201     0.07000
O543        O  0.35945660  0.10416706  0.89087884    -0.77600
C544        C  0.34814504  0.00869136  0.91521805     0.83400
O545        O  0.46663109  0.12170480  0.94432865    -0.78700
O546        O  0.43515904  0.02507794  0.85312459    -0.80200
O547        O  0.38887757  0.09083720  0.79294806    -0.80000
O548        O  0.39811239  0.14467449  0.85597299    -0.78600
Zn549      Zn  0.38728211  0.08406147  0.90775337     1.55700
O550        O  0.37902404  0.03795048  0.79808725    -0.80000
Cd551      Cd  0.41805813  0.11663563  0.83569388     1.59700
Cd552      Cd  0.46414562  0.10373334  0.89092700     1.59600
O553        O  0.46536977  0.14657508  0.81515294    -0.80000
O554        O  0.41723475  0.08480065  0.87173761    -1.90500
Cd555      Cd  0.39753698  0.03847122  0.85093508     1.59900
O556        O  0.49850423  0.14270066  0.85695546    -0.80000
O557        O  0.35860212  0.00396214  0.88490093    -0.78600
C558        C  0.44321465  0.12323474  0.96182352     0.83900
C559        C  0.37071363  0.13204093  0.87396931     0.83500
O560        O  0.35793111  0.03809792  0.92746948    -0.77600
C561        C  0.37676066  0.06104147  0.78058270     0.84400
O562        O  0.41363761  0.11098374  0.94898609    -0.77700
C563        C  0.49441918  0.15461619  0.82729626     0.84500
C564        C  0.46357460  0.03749141  0.86966697     0.84800
O565        O  0.47651507  0.06563086  0.88682245    -0.80100
C566        C  0.02286083  0.34663378  0.93657901     0.04000
C567        C  0.02540736  0.35658632  0.97288903    -0.12200
C568        C  0.05347248  0.36232588  0.49370102     0.01500
C569        C  0.07813451  0.35597095  0.97829869    -0.10700
C570        C  0.07549341  0.34535782  0.94224298     0.04000
C571        C  0.04779406  0.34126321  0.92148385    -0.10100
H572        H  0.50633645  0.36135013  0.98430897     0.09600
H573        H  0.09989321  0.36015570  0.99403814     0.07100
H574        H  0.04515523  0.33342761  0.89344515     0.07000
O575        O  0.13391937  0.26714204  0.81789920    -0.77600
C576        C  0.23994354  0.34272061  0.81562516     0.83400
O577        O  0.16063228  0.28796945  0.94334070    -0.78700
O578        O  0.23633210  0.40391873  0.89112745    -0.80200
O579        O  0.13420851  0.36964560  0.81603182    -0.80000
O580        O  0.09582824  0.28306599  0.82798868    -0.78600
Zn581      Zn  0.17244497  0.29798283  0.85128689     1.55700
O582        O  0.18807105  0.40724611  0.82821113    -0.80000
Cd583      Cd  0.12576570  0.33014185  0.85022579     1.59700
Cd584      Cd  0.16758624  0.33527088  0.92490151     1.59600
O585        O  0.09875731  0.33459136  0.89091243    -0.80000
O586        O  0.16779413  0.33459175  0.87017308    -1.90500
Cd587      Cd  0.20506597  0.37704291  0.85032085     1.59900
O588        O  0.12694789  0.34209377  0.94246017    -0.80000
O589        O  0.23589261  0.36838673  0.81626391    -0.78600
C590        C  0.16213269  0.26479288  0.92518240     0.83900
C591        C  0.10388851  0.26209937  0.81557877     0.83500
O592        O  0.21846680  0.31446204  0.82945845    -0.77600
C593        C  0.15945919  0.39966279  0.81491940     0.84400
O594        O  0.16765372  0.26771077  0.89137945    -0.77700
C595        C  0.10192745  0.34025030  0.92469307     0.84500
C596        C  0.23837510  0.40092001  0.92501583     0.84800
O597        O  0.21486991  0.37605359  0.94276428    -0.80100
O598        O  0.39747631  0.25640834  0.89117815    -0.77600
C599        C  0.49372632  0.34127681  0.91469478     0.83400
O600        O  0.37947063  0.34566524  0.94359510    -0.78700
O601        O  0.47641312  0.41174980  0.85288356    -0.80200
O602        O  0.41163412  0.29875651  0.79338744    -0.80000
O603        O  0.35708764  0.25475245  0.85639744    -0.78600
Zn604      Zn  0.41819839  0.30457780  0.90777728     1.55700
O605        O  0.46404242  0.34281771  0.79791209    -0.80000
Cd606      Cd  0.38564392  0.30242131  0.83565150     1.59700
Cd607      Cd  0.39771612  0.36126383  0.89028786     1.59600
O608        O  0.35568456  0.31930016  0.81434673    -0.80000
O609        O  0.41726263  0.33368984  0.87163133    -1.90500
Cd610      Cd  0.46350251  0.36078112  0.85073888     1.59900
O611        O  0.35851611  0.35579848  0.85620751    -0.80000
O612        O  0.49827609  0.35673606  0.88455427    -0.78600
C613        C  0.37844039  0.32111843  0.96150053     0.83900
C614        C  0.36950398  0.23988430  0.87445984     0.83500
O615        O  0.46439507  0.32124778  0.92694745    -0.77600
C616        C  0.44122524  0.31698958  0.78072761     0.84400
O617        O  0.39140787  0.30426309  0.94915682    -0.77700
C618        C  0.34695759  0.33977636  0.82649239     0.84500
C619        C  0.46371332  0.42756743  0.86923963     0.84800
O620        O  0.43544645  0.41208967  0.88614737    -0.80100
C621        C  0.32333689  0.34536997  0.80475029     0.04000
C622        C  0.33116202  0.35582863  0.76844283    -0.12200
C623        C  0.30938392  0.36258114  0.74787886     0.01500
C624        C  0.27910245  0.35744024  0.76373535    -0.10700
C625        C  0.27078858  0.34617428  0.79931654     0.04000
C626        C  0.29306206  0.34034124  0.81996939    -0.10100
H627        H  0.35476780  0.36006240  0.75687569     0.09600
H628        H  0.26179807  0.36248561  0.74857479     0.07100
H629        H  0.28704437  0.33227972  0.84789761     0.07000
C630        C  0.32412194  0.47969190  0.93716590     0.04000
C631        C  0.29376570  0.45489769  0.92197491    -0.12200
C632        C  0.26982222  0.42734008  0.94272236     0.01500
C633        C  0.27743397  0.42471280  0.97889120    -0.10700
C634        C  0.30853648  0.44917108  0.49438018     0.04000
C635        C  0.33125662  0.47714236  0.97357851    -0.10100
H636        H  0.28880393  0.45752803  0.89384936     0.09600
H637        H  0.25956746  0.40301947  0.99460788     0.07100
H638        H  0.35516909  0.99606905  0.98506679     0.07000
C639        C  0.13819849  0.44878203  0.74791421     0.04000
C640        C  0.14378946  0.42377998  0.76343025    -0.12200
C641        C  0.15506980  0.42663149  0.79897743     0.01500
C642        C  0.16038888  0.45441287  0.81996033    -0.10700
C643        C  0.15487948  0.47947333  0.80511084     0.04000
C644        C  0.14442425  0.47699017  0.76883342    -0.10100
H645        H  0.13918377  0.40167891  0.74800884     0.09600
H646        H  0.16860666  0.45643259  0.84781447     0.07100
H647        H  0.13994279  0.99629232  0.75750755     0.07000
C648        C  0.35178230  0.15006075  0.87524247     0.04000
C649        C  0.31634666  0.13208408  0.87553198    -0.12200
C650        C  0.29834147  0.14949141  0.87578589     0.01500
C651        C  0.31590415  0.18490120  0.87596231    -0.10700
C652        C  0.35128176  0.20291897  0.87568208     0.04000
C653        C  0.36915746  0.18547048  0.87541578    -0.10100
H654        H  0.30282702  0.10464335  0.87511934     0.09600
H655        H  0.30205448  0.19845072  0.87582309     0.07100
H656        H  0.39657915  0.19944806  0.87493369     0.07000
C657        C  0.46403897  0.98274189  0.11968437     0.04000
C658        C  0.48226236  0.51838160  0.11954969    -0.12200
C659        C  0.01785836  0.53627441  0.11942871     0.01500
C660        C  0.03521917  0.51810828  0.11947023    -0.10700
C661        C  0.01747950  0.98249716  0.11964923     0.04000
C662        C  0.48189104  0.96501915  0.11972449    -0.10100
H663        H  0.46872159  0.53223178  0.11959667     0.09600
H664        H  0.06263606  0.53173797  0.11945830     0.07100
H665        H  0.46807214  0.93758122  0.11988308     0.07000
C666        C  0.14852972  0.85173470  0.11851236     0.04000
C667        C  0.13109064  0.81626040  0.11864413    -0.12200
C668        C  0.14899570  0.79876919  0.11888276     0.01500
C669        C  0.18438336  0.81686558  0.11884793    -0.10700
C670        C  0.20187004  0.85226083  0.11876615     0.04000
C671        C  0.18391242  0.86964600  0.11853041    -0.10100
H672        H  0.10367095  0.80231446  0.11879196     0.09600
H673        H  0.19832897  0.80341350  0.11912073     0.07100
H674        H  0.19747276  0.89709357  0.11861480     0.07000
C675        C  0.34427332  0.82397426  0.05463433     0.04000
C676        C  0.33902597  0.79337030  0.06929547    -0.12200
C677        C  0.34543894  0.77155720  0.04843552     0.01500
C678        C  0.35759366  0.78075125  0.01320512    -0.10700
C679        C  0.36281479  0.81129967  0.49788249     0.04000
C680        C  0.35543028  0.83253891  0.01862126    -0.10100
H681        H  0.33046527  0.78680027  0.09701329     0.09600
H682        H  0.36313254  0.76389190  0.49783475     0.07100
H683        H  0.35981343  0.85636417  0.50747045     0.07000
O684        O  0.14430579  0.96512873  0.06540070    -0.77600
C685        C  0.12993086  0.87011193  0.11908230     0.83400
O686        O  0.03561619  0.87900384  0.04768626    -0.78700
O687        O  0.03655938  0.85744169  0.17789499    -0.80200
O688        O  0.12006070  0.96553963  0.19404339    -0.80000
O689        O  0.14174623  0.99894455  0.10721958    -0.78600
Zn690      Zn  0.11462932  0.91866297  0.08427734     1.55700
O691        O  0.11238027  0.91344544  0.19825703    -0.80000
Cd692      Cd  0.10253459  0.96414212  0.14052528     1.59700
Cd693      Cd  0.03698870  0.89776984  0.10049482     1.59600
O694        O  0.06443737  0.97657450  0.13684125    -0.80000
O695        O  0.08394890  0.91791021  0.11963237    -1.90500
Cd696      Cd  0.08326362  0.88682818  0.15622924     1.59900
O697        O  0.02362466  0.93535559  0.10323333    -0.80000
O698        O  0.10238959  0.85786323  0.13671126    -0.78600
C699        C  0.05928654  0.87797247  0.03006735     0.83900
C700        C  0.15314953  0.99444445  0.07743484     0.83500
O701        O  0.14179677  0.89810520  0.10221049    -0.77600
C702        C  0.12312413  0.94281313  0.21124370     0.84400
O703        O  0.08913645  0.89128132  0.04245384    -0.77700
C704        C  0.03618809  0.96371889  0.11993813     0.84500
C705        C  0.00737517  0.84818024  0.16540679     0.84800
O706        O  0.00299412  0.85893460  0.13507981    -0.80100
C707        C  0.18918407  0.55476559  0.49850710     0.04000
C708        C  0.16782233  0.52624658  0.01940578    -0.12200
C709        C  0.17642103  0.52367116  0.05536720     0.01500
C710        C  0.20711895  0.54890336  0.06984568    -0.10700
C711        C  0.22906678  0.57702571  0.04885456     0.04000
C712        C  0.21985342  0.58009110  0.01367555    -0.10100
H713        H  0.14398200  0.00676407  0.50833401     0.09600
H714        H  0.21382164  0.54674653  0.09745377     0.07100
H715        H  0.23688994  0.60235081  0.49813313     0.07000
C716        C  0.47815349  0.82416777  0.18704327     0.04000
C717        C  0.45340637  0.79399990  0.17147813    -0.12200
C718        C  0.42585917  0.76981488  0.19197948     0.01500
C719        C  0.42317994  0.77695161  0.22830455    -0.10700
C720        C  0.44755534  0.80788642  0.24420872     0.04000
C721        C  0.47552543  0.83089566  0.22359049    -0.10100
H722        H  0.45610868  0.78932842  0.14327331     0.09600
H723        H  0.40147851  0.75883002  0.24381450     0.07100
H724        H  0.99445800  0.85466190  0.23536667     0.07000
O725        O  0.31346773  0.71878418  0.07796045    -0.77600
C726        C  0.26087318  0.60373255  0.06447661     0.83400
O727        O  0.28707588  0.66110223  0.19196667    -0.78700
O728        O  0.33318368  0.59876747  0.14036021    -0.80200
O729        O  0.40616063  0.68813058  0.07740421    -0.80000
O730        O  0.36741911  0.73629323  0.06506847    -0.78600
Zn731      Zn  0.29679640  0.67258268  0.09988049     1.55700
O732        O  0.36878850  0.63405892  0.06558430    -0.80000
Cd733      Cd  0.37591331  0.70526315  0.09917075     1.59700
Cd734      Cd  0.33404232  0.66787395  0.17356172     1.59600
O735        O  0.40270782  0.73656111  0.14010520    -0.80000
O736        O  0.33338719  0.66790633  0.11885160    -1.90500
Cd737      Cd  0.32895531  0.62567748  0.09928115     1.59900
O738        O  0.37462947  0.71497918  0.19157853    -0.80000
O739        O  0.28188315  0.59572052  0.07688500    -0.78600
C740        C  0.26383455  0.66248510  0.17390773     0.83900
C741        C  0.34179383  0.74039183  0.06434648     0.83500
O742        O  0.26592038  0.63381174  0.06665966    -0.77600
C743        C  0.39875771  0.65940298  0.06448756     0.84400
O744        O  0.26653630  0.66787189  0.14006198    -0.77700
C745        C  0.39955962  0.73850773  0.17398816     0.84500
C746        C  0.33885118  0.60222106  0.17414487     0.84800
O747        O  0.34071955  0.62739207  0.19160177    -0.80100
O748        O  0.31890626  0.85704430  0.06471581    -0.77600
C749        C  0.23882351  0.87102081  0.11944153     0.83400
O750        O  0.34306339  0.96636106  0.04834770    -0.78700
O751        O  0.31967048  0.96508206  0.17790164    -0.80200
O752        O  0.34374595  0.88021366  0.19362389    -0.80000
O753        O  0.35457639  0.85848157  0.10670762    -0.78600
Zn754      Zn  0.30267653  0.88694493  0.08424414     1.55700
O755        O  0.30035299  0.88933526  0.19878056    -0.80000
Cd756      Cd  0.35986403  0.89793962  0.14018587     1.59700
Cd757      Cd  0.36014949  0.96430729  0.10104089     1.59600
O758        O  0.41078231  0.93563286  0.13649611    -0.80000
O759        O  0.33264589  0.91723067  0.11989931    -1.90500
Cd760      Cd  0.30235695  0.91813824  0.15660457     1.59900
O761        O  0.41091366  0.97706897  0.10360306    -0.80000
O762        O  0.25402801  0.89834485  0.13748346    -0.78600
C763        C  0.31810180  0.94299445  0.03069023     0.83900
C764        C  0.33879017  0.84750658  0.07678504     0.83500
O765        O  0.25499193  0.85957373  0.10207692    -0.77600
C766        C  0.31847190  0.87782865  0.21127031     0.84400
O767        O  0.30112015  0.91306986  0.04291065    -0.77700
C768        C  0.42648011  0.96409984  0.11992782     0.84500
C769        C  0.34030856  0.99425606  0.16569526     0.84800
O770        O  0.35594531  0.99852655  0.13572948    -0.80100
C771        C  0.36111154  0.55466972  0.24414296     0.04000
C772        C  0.35573539  0.52651742  0.22363249    -0.12200
C773        C  0.34585782  0.52363080  0.18724434     0.01500
C774        C  0.34029599  0.54829362  0.17174017    -0.10700
C775        C  0.34405432  0.57603149  0.19213669     0.04000
C776        C  0.35448254  0.57900551  0.22829212    -0.10100
H777        H  0.36061215  0.00761737  0.23536219     0.09600
H778        H  0.33251758  0.54538133  0.14365928     0.07100
H779        H  0.35837539  0.60083087  0.24373275     0.07000
C780        C  0.17756899  0.65419869  0.18544932     0.04000
C781        C  0.17058195  0.64495083  0.22203921    -0.12200
C782        C  0.19354784  0.64042959  0.24315102     0.01500
C783        C  0.22465583  0.64721238  0.22761951    -0.10700
C784        C  0.23209035  0.65693767  0.19125973     0.04000
C785        C  0.20792847  0.65981936  0.17025542    -0.10100
H786        H  0.14674721  0.64010262  0.23356193     0.09600
H787        H  0.24277767  0.64402593  0.24352126     0.07100
H788        H  0.21286810  0.66717881  0.14204523     0.07000
O789        O  0.03724959  0.68075275  0.06560798    -0.77600
C790        C  0.13095906  0.76171633  0.11955019     0.83400
O791        O  0.12202497  0.65795367  0.04685831    -0.78700
O792        O  0.14597825  0.68094407  0.17591120    -0.80200
O793        O  0.03749762  0.65666545  0.19462370    -0.80000
O794        O  0.00333088  0.64540938  0.10812361    -0.78600
Zn795      Zn  0.08347169  0.69773446  0.08458920     1.55700
O796        O  0.09021380  0.70004810  0.19896984    -0.80000
Cd797      Cd  0.03806400  0.64040580  0.14097005     1.58100
Cd798      Cd  0.10341211  0.64021625  0.09977459     1.59600
O799        O  0.02469283  0.58951711  0.13706526    -0.80000
O800        O  0.08424000  0.66764014  0.11970005    -1.90500
Cd801      Cd  0.11603472  0.69816797  0.15579622     1.59900
O802        O  0.06503932  0.58941781  0.10240420    -0.80000
O803        O  0.14380709  0.74667889  0.13660524    -0.78600
C804        C  0.12370312  0.68322920  0.02973058     0.83900
C805        C  0.00792511  0.66088439  0.07799176     0.83500
O806        O  0.10292127  0.74525545  0.10295557    -0.77600
C807        C  0.06077574  0.68193575  0.21200412     0.84400
O808        O  0.11108892  0.70020388  0.04268037    -0.77700
C809        C  0.03690997  0.57383958  0.11959268     0.84500
C810        C  0.15393251  0.65990351  0.16378743     0.84800
O811        O  0.14203846  0.64399120  0.13404125    -0.80100
C812        C  0.47888755  0.65523803  0.05585834     0.04000
C813        C  0.45356902  0.66053568  0.07034678    -0.12200
C814        C  0.42590381  0.65502203  0.04901306     0.01500
C815        C  0.42340869  0.64366194  0.01352662    -0.10700
C816        C  0.44868055  0.63830224  0.49842679     0.04000
C817        C  0.47676429  0.64480144  0.01963256    -0.10100
H818        H  0.45530114  0.66874398  0.09816625     0.09600
H819        H  0.40143998  0.63888377  0.49777786     0.07100
H820        H  0.99622100  0.64043663  0.50858251     0.07000
C821        C  0.48242564  0.96516813  0.36872044     0.04000
C822        C  0.46478500  0.98310471  0.36889663    -0.12200
C823        C  0.48229990  0.51872476  0.36894127     0.01500
C824        C  0.01789039  0.53642922  0.36870017    -0.10700
C825        C  0.03598098  0.51898721  0.36853710     0.04000
C826        C  0.01802709  0.98334667  0.36852009    -0.10100
H827        H  0.43737072  0.96931971  0.36918288     0.09600
H828        H  0.03155516  0.56386881  0.36885273     0.07100
H829        H  0.03180103  0.96972976  0.36854602     0.07000
O830        O  0.24499541  0.64276724  0.39091148    -0.77600
C831        C  0.15984318  0.65482933  0.41356177     0.83400
O832        O  0.15508870  0.53644258  0.44412013    -0.78700
O833        O  0.08938095  0.56633537  0.35228810    -0.80200
O834        O  0.20268251  0.61443814  0.29314300    -0.80000
O835        O  0.24621222  0.60348982  0.35668209    -0.78600
Zn836      Zn  0.19660436  0.61596587  0.40725121     1.55700
O837        O  0.15845079  0.62246956  0.29686276    -0.80000
Cd838      Cd  0.19862665  0.58490089  0.33578955     1.59700
Cd839      Cd  0.13960055  0.53847082  0.39059144     1.59600
O840        O  0.18119894  0.53790926  0.31473309    -0.80000
O841        O  0.16732442  0.58554558  0.37145276    -1.90500
Cd842      Cd  0.14034753  0.60455695  0.34998294     1.59900
O843        O  0.14479603  0.50432330  0.35679555    -0.80000
O844        O  0.14422699  0.64363240  0.38354689    -0.78600
C845        C  0.17952988  0.56020995  0.46191790     0.83900
C846        C  0.26132583  0.63090364  0.37456267     0.83500
O847        O  0.18009267  0.64581957  0.42569970    -0.77600
C848        C  0.18437587  0.62544715  0.27994557     0.84400
O849        O  0.19648141  0.58993849  0.44922445    -0.77700
C850        C  0.16064472  0.50870803  0.32695859     0.84500
C851        C  0.07352514  0.53794387  0.36902336     0.84800
O852        O  0.08891391  0.52534025  0.38634171    -0.80100
C853        C  0.15437628  0.67848046  0.43562742     0.04000
C854        C  0.16013930  0.70912837  0.42095510    -0.12200
C855        C  0.15658527  0.73282672  0.44219899     0.01500
C856        C  0.14604134  0.72458562  0.47826839    -0.10700
C857        C  0.13922357  0.69322230  0.49325274     0.04000
C858        C  0.14443566  0.67079489  0.47195612    -0.10100
H859        H  0.16797449  0.71458091  0.39292069     0.09600
H860        H  0.14228401  0.74225605  0.49436007     0.07100
H861        H  0.13942513  0.64674040  0.48307493     0.07000
C862        C  0.05517024  0.69115374  0.24876935     0.04000
C863        C  0.02659940  0.66954839  0.26947634    -0.12200
C864        C  0.02390667  0.67780325  0.30555593     0.01500
C865        C  0.04912123  0.70830143  0.32040876    -0.10700
C866        C  0.07730915  0.73042077  0.29966846     0.04000
C867        C  0.08044812  0.72164296  0.26433746    -0.10100
H868        H  0.00709807  0.64586065  0.25811746     0.09600
H869        H  0.04684967  0.71476389  0.34808628     0.07100
H870        H  0.10276535  0.73889295  0.24902163     0.07000
O871        O  0.35945654  0.60416695  0.39087882    -0.77600
C872        C  0.34814496  0.50869128  0.41521802     0.83400
O873        O  0.46663110  0.62170472  0.44432865    -0.78700
O874        O  0.43515897  0.52507781  0.35312472    -0.80200
O875        O  0.38887750  0.59083709  0.29294817    -0.80000
O876        O  0.39811229  0.64467441  0.35597294    -0.78600
Zn877      Zn  0.38728219  0.58406139  0.40775349     1.55700
O878        O  0.37902420  0.53795042  0.29808714    -0.80000
Cd879      Cd  0.41805815  0.61663573  0.33569383     1.59700
Cd880      Cd  0.46414570  0.60373325  0.39092712     1.59600
O881        O  0.46536977  0.64657519  0.31515290    -0.80000
O882        O  0.41723481  0.58480070  0.37173767    -1.90500
Cd883      Cd  0.39753707  0.53847114  0.35093502     1.59900
O884        O  0.49850415  0.64270056  0.35695541    -0.80000
O885        O  0.35860210  0.50396204  0.38490095    -0.78600
C886        C  0.44321470  0.62323473  0.46182348     0.83900
C887        C  0.37071358  0.63204086  0.37396931     0.83500
O888        O  0.35793104  0.53809784  0.42746945    -0.77600
C889        C  0.37676071  0.56104140  0.28058270     0.84400
O890        O  0.41363767  0.61098379  0.44898602    -0.77700
C891        C  0.49441914  0.65461620  0.32729625     0.84500
C892        C  0.46357458  0.53749137  0.36966701     0.84800
O893        O  0.47651510  0.56563088  0.38682234    -0.80100
C894        C  0.02286084  0.84663375  0.43657901     0.04000
C895        C  0.02540734  0.85658623  0.47288907    -0.12200
C896        C  0.05347249  0.86232593  0.99370101     0.01500
C897        C  0.07813469  0.85597100  0.47829879    -0.10700
C898        C  0.07549346  0.84535784  0.44224298     0.04000
C899        C  0.04779414  0.84126328  0.42148400    -0.10100
H900        H  0.50633667  0.86134997  0.48430885     0.09600
H901        H  0.09989261  0.86015564  0.49403762     0.07100
H902        H  0.04515529  0.83342752  0.39344443     0.07000
O903        O  0.13391949  0.76714209  0.31789904    -0.77600
C904        C  0.23994353  0.84272066  0.31562513     0.83400
O905        O  0.16063232  0.78796953  0.44334074    -0.78700
O906        O  0.23633222  0.90391877  0.39112740    -0.80200
O907        O  0.13420846  0.86964558  0.31603196    -0.80000
O908        O  0.09582838  0.78306603  0.32798866    -0.78600
Zn909      Zn  0.17244505  0.79798275  0.35128683     1.55700
O910        O  0.18807096  0.90724603  0.32821129    -0.80000
Cd911      Cd  0.12576588  0.83014194  0.35022592     1.59700
Cd912      Cd  0.16758628  0.83527101  0.42490146     1.59600
O913        O  0.09875728  0.83459129  0.39091238    -0.80000
O914        O  0.16779416  0.83459168  0.37017315    -1.90500
Cd915      Cd  0.20506590  0.87704282  0.35032080     1.59900
O916        O  0.12694800  0.84209393  0.44246004    -0.80000
O917        O  0.23589257  0.86838677  0.31626381    -0.78600
C918        C  0.16213263  0.76479289  0.42518247     0.83900
C919        C  0.10388861  0.76209940  0.31557869     0.83500
O920        O  0.21846686  0.81446211  0.32945851    -0.77600
C921        C  0.15945914  0.89966276  0.31491952     0.84400
O922        O  0.16765361  0.76771068  0.39137950    -0.77700
C923        C  0.10192751  0.84025036  0.42469302     0.84500
C924        C  0.23837516  0.90092015  0.42501581     0.84800
O925        O  0.21486994  0.87605377  0.44276430    -0.80100
O926        O  0.39747638  0.75640835  0.39117818    -0.77600
C927        C  0.49372629  0.84127685  0.41469475     0.83400
O928        O  0.37947065  0.84566529  0.44359507    -0.78700
O929        O  0.47641300  0.91174974  0.35288348    -0.80200
O930        O  0.41163419  0.79875638  0.29338745    -0.80000
O931        O  0.35708762  0.75475239  0.35639758    -0.78600
Zn932      Zn  0.41819832  0.80457773  0.40777720     1.55700
O933        O  0.46404238  0.84281778  0.29791201    -0.80000
Cd934      Cd  0.38564400  0.80242119  0.33565142     1.59700
Cd935      Cd  0.39771603  0.86126375  0.39028777     1.59600
O936        O  0.35568462  0.81930011  0.31434683    -0.80000
O937        O  0.41726256  0.83368974  0.37163124    -1.90500
Cd938      Cd  0.46350243  0.86078104  0.35073880     1.59900
O939        O  0.35851605  0.85579845  0.35620751    -0.80000
O940        O  0.49827607  0.85673601  0.38455415    -0.78600
C941        C  0.37844038  0.82111843  0.46150047     0.83900
C942        C  0.36950404  0.73988427  0.37445994     0.83500
O943        O  0.46439503  0.82124788  0.42694740    -0.77600
C944        C  0.44122528  0.81698955  0.28072760     0.84400
O945        O  0.39140777  0.80426305  0.44915671    -0.77700
C946        C  0.34695758  0.83977630  0.32649241     0.84500
C947        C  0.46371325  0.92756738  0.36923964     0.84800
O948        O  0.43544641  0.91208961  0.38614745    -0.80100
C949        C  0.32333683  0.84536984  0.30475027     0.04000
C950        C  0.33116197  0.85582853  0.26844281    -0.12200
C951        C  0.30938384  0.86258101  0.24787880     0.01500
C952        C  0.27910239  0.85744015  0.26373529    -0.10700
C953        C  0.27078857  0.84617432  0.29931653     0.04000
C954        C  0.29306201  0.84034120  0.31996939    -0.10100
H955        H  0.35476775  0.86006236  0.25687570     0.09600
H956        H  0.26179806  0.86248547  0.24857472     0.07100
H957        H  0.28704433  0.83227975  0.34789746     0.07000
C958        C  0.32412193  0.97969192  0.43716593     0.04000
C959        C  0.29376568  0.95489779  0.42197484    -0.12200
C960        C  0.26982222  0.92734020  0.44272240     0.01500
C961        C  0.27743398  0.92471290  0.47889122    -0.10700
C962        C  0.30853649  0.94917100  0.99438010     0.04000
C963        C  0.33125667  0.97714248  0.47357861    -0.10100
H964        H  0.28880403  0.95752809  0.39384995     0.09600
H965        H  0.25956735  0.90301939  0.49460797     0.07100
H966        H  0.35516870  0.49606864  0.48506651     0.07000
C967        C  0.13819847  0.94878206  0.24791420     0.04000
C968        C  0.14378952  0.92378010  0.26343026    -0.12200
C969        C  0.15506985  0.92663152  0.29897743     0.01500
C970        C  0.16038882  0.95441288  0.31996022    -0.10700
C971        C  0.15487952  0.97947337  0.30511082     0.04000
C972        C  0.14442426  0.97699031  0.26883334    -0.10100
H973        H  0.13918372  0.90167864  0.24800863     0.09600
H974        H  0.16860669  0.95643260  0.34781505     0.07100
H975        H  0.13994272  0.49629205  0.25750761     0.07000
C976        C  0.35178230  0.65006073  0.37524246     0.04000
C977        C  0.31634667  0.63208411  0.37553188    -0.12200
C978        C  0.29834148  0.64949145  0.37578585     0.01500
C979        C  0.31590426  0.68490119  0.37596227    -0.10700
C980        C  0.35128182  0.70291897  0.37568219     0.04000
C981        C  0.36915757  0.68547050  0.37541590    -0.10100
H982        H  0.30282697  0.60464335  0.37511924     0.09600
H983        H  0.30205429  0.69845105  0.37582305     0.07100
H984        H  0.39657884  0.69944786  0.37493387     0.07000
C985        C  0.46403902  0.98274190  0.61968432     0.04000
C986        C  0.48226246  0.51838165  0.61954972    -0.12200
C987        C  0.01785840  0.53627441  0.61942866     0.01500
C988        C  0.03521924  0.51810830  0.61947029    -0.10700
C989        C  0.01747950  0.98249718  0.61964928     0.04000
C990        C  0.48189117  0.96501927  0.61972452    -0.10100
H991        H  0.46872165  0.53223198  0.61959679     0.09600
H992        H  0.06263577  0.53173782  0.61945841     0.07100
H993        H  0.46807199  0.93758073  0.61988311     0.07000
C994        C  0.14852972  0.85173470  0.61851250     0.04000
C995        C  0.13109072  0.81626044  0.61864423    -0.12200
C996        C  0.14899570  0.79876919  0.61888285     0.01500
C997        C  0.18438338  0.81686558  0.61884799    -0.10700
C998        C  0.20187006  0.85226085  0.61876608     0.04000
C999        C  0.18391243  0.86964600  0.61853045    -0.10100
H1000       H  0.10367061  0.80231428  0.61879206     0.09600
H1001       H  0.19832894  0.80341356  0.61912084     0.07100
H1002       H  0.19747285  0.89709377  0.61861483     0.07000
C1003       C  0.34427331  0.82397428  0.55463425     0.04000
C1004       C  0.33902582  0.79337025  0.56929527    -0.12200
C1005       C  0.34543883  0.77155714  0.54843545     0.01500
C1006       C  0.35759368  0.78075123  0.51320509    -0.10700
C1007       C  0.36281472  0.81129966  0.99788253     0.04000
C1008       C  0.35543030  0.83253891  0.51862117    -0.10100
H1009       H  0.33046490  0.78680008  0.59701361     0.09600
H1010       H  0.36313247  0.76389182  0.99783462     0.07100
H1011       H  0.35981339  0.85636415  0.00747057     0.07000
O1012       O  0.14430594  0.96512886  0.56540078    -0.77600
C1013       C  0.12993083  0.87011192  0.61908242     0.83400
O1014       O  0.03561622  0.87900377  0.54768634    -0.78700
O1015       O  0.03655938  0.85744164  0.67789510    -0.80200
O1016       O  0.12006070  0.96553959  0.69404347    -0.80000
O1017       O  0.14174632  0.99894471  0.60721956    -0.78600
Zn1018     Zn  0.11462946  0.91866312  0.58427740     1.55700
O1019       O  0.11238031  0.91344542  0.69825697    -0.80000
Cd1020     Cd  0.10253463  0.96414211  0.64052535     1.59700
Cd1021     Cd  0.03698873  0.89776980  0.60049490     1.59600
O1022       O  0.06443731  0.97657444  0.63684120    -0.80000
O1023       O  0.08394898  0.91791030  0.61963231    -1.90500
Cd1024     Cd  0.08326348  0.88682816  0.65622929     1.59900
O1025       O  0.02362462  0.93535557  0.60323323    -0.80000
O1026       O  0.10238950  0.85786320  0.63671131    -0.78600
C1027       C  0.05928657  0.87797244  0.53006736     0.83900
C1028       C  0.15314965  0.99444459  0.57743486     0.83500
O1029       O  0.14179677  0.89810519  0.60221060    -0.77600
C1030       C  0.12312411  0.94281307  0.71124373     0.84400
O1031       O  0.08913651  0.89128134  0.54245379    -0.77700
C1032       C  0.03618803  0.96371885  0.61993810     0.84500
C1033       C  0.00737520  0.84818019  0.66540686     0.84800
O1034       O  0.00299417  0.85893457  0.63507989    -0.80100
C1035       C  0.18918413  0.55476567  0.99850715     0.04000
C1036       C  0.16782213  0.52624648  0.51940575    -0.12200
C1037       C  0.17642104  0.52367110  0.55536716     0.01500
C1038       C  0.20711896  0.54890335  0.56984564    -0.10700
C1039       C  0.22906675  0.57702575  0.54885453     0.04000
C1040       C  0.21985344  0.58009106  0.51367542    -0.10100
H1041       H  0.14398185  0.00676382  0.00833383     0.09600
H1042       H  0.21382163  0.54674653  0.59745354     0.07100
H1043       H  0.23689019  0.60235127  0.99813305     0.07000
C1044       C  0.47815350  0.82416775  0.68704326     0.04000
C1045       C  0.45340636  0.79399990  0.67147809    -0.12200
C1046       C  0.42585921  0.76981485  0.69197945     0.01500
C1047       C  0.42317990  0.77695148  0.72830460    -0.10700
C1048       C  0.44755531  0.80788639  0.74420871     0.04000
C1049       C  0.47552533  0.83089563  0.72359043    -0.10100
H1050       H  0.45610868  0.78932847  0.64327324     0.09600
H1051       H  0.40147901  0.75883034  0.74381417     0.07100
H1052       H  0.99445797  0.85466182  0.73536665     0.07000
O1053       O  0.31346774  0.71878410  0.57796034    -0.77600
C1054       C  0.26087319  0.60373260  0.56447662     0.83400
O1055       O  0.28707589  0.66110220  0.69196665    -0.78700
O1056       O  0.33318363  0.59876739  0.64036020    -0.80200
O1057       O  0.40616072  0.68813062  0.57740432    -0.80000
O1058       O  0.36741914  0.73629323  0.56506835    -0.78600
Zn1059     Zn  0.29679643  0.67258266  0.59988037     1.55700
O1060       O  0.36878852  0.63405897  0.56558439    -0.80000
Cd1061     Cd  0.37591344  0.70526330  0.59917081     1.59700
Cd1062     Cd  0.33404243  0.66787410  0.67356177     1.59600
O1063       O  0.40270786  0.73656109  0.64010524    -0.80000
O1064       O  0.33338723  0.66790637  0.61885155    -1.90500
Cd1065     Cd  0.32895518  0.62567744  0.59928123     1.59900
O1066       O  0.37462944  0.71497924  0.69157856    -0.80000
O1067       O  0.28188310  0.59572051  0.57688506    -0.78600
C1068       C  0.26383452  0.66248504  0.67390772     0.83900
C1069       C  0.34179384  0.74039181  0.56434643     0.83500
O1070       O  0.26592047  0.63381181  0.56665968    -0.77600
C1071       C  0.39875776  0.65940301  0.56448764     0.84400
O1072       O  0.26653626  0.66787186  0.64006196    -0.77700
C1073       C  0.39955963  0.73850771  0.67398818     0.84500
C1074       C  0.33885113  0.60222102  0.67414487     0.84800
O1075       O  0.34071956  0.62739207  0.69160172    -0.80100
O1076       O  0.31890620  0.85704427  0.56471572    -0.77600
C1077       C  0.23882355  0.87102089  0.61944148     0.83400
O1078       O  0.34306343  0.96636108  0.54834779    -0.78700
O1079       O  0.31967050  0.96508200  0.67790172    -0.80200
O1080       O  0.34374591  0.88021356  0.69362387    -0.80000
O1081       O  0.35457644  0.85848167  0.60670751    -0.78600
Zn1082     Zn  0.30267666  0.88694508  0.58424401     1.55700
O1083       O  0.30035312  0.88933539  0.69878068    -0.80000
Cd1084     Cd  0.35986406  0.89793958  0.64018593     1.59700
Cd1085     Cd  0.36014945  0.96430744  0.60104099     1.59600
O1086       O  0.41078235  0.93563278  0.63649602    -0.80000
O1087       O  0.33264595  0.91723069  0.61989937    -1.90500
Cd1088     Cd  0.30235696  0.91813820  0.65660464     1.59900
O1089       O  0.41091365  0.97706897  0.60360315    -0.80000
O1090       O  0.25402801  0.89834499  0.63748334    -0.78600
C1091       C  0.31810184  0.94299450  0.53069030     0.83900
C1092       C  0.33879017  0.84750662  0.57678495     0.83500
O1093       O  0.25499203  0.85957392  0.60207682    -0.77600
C1094       C  0.31847194  0.87782866  0.71127035     0.84400
O1095       O  0.30112020  0.91306990  0.54291068    -0.77700
C1096       C  0.42648013  0.96409981  0.61992780     0.84500
C1097       C  0.34030855  0.99425600  0.66569538     0.84800
O1098       O  0.35594533  0.99852657  0.63572961    -0.80100
C1099       C  0.36111150  0.55466971  0.74414295     0.04000
C1100       C  0.35573539  0.52651733  0.72363258    -0.12200
C1101       C  0.34585772  0.52363072  0.68724442     0.01500
C1102       C  0.34029602  0.54829358  0.67174028    -0.10700
C1103       C  0.34405429  0.57603144  0.69213668     0.04000
C1104       C  0.35448241  0.57900543  0.72829214    -0.10100
H1105       H  0.36061214  0.00761765  0.73536205     0.09600
H1106       H  0.33251748  0.54538126  0.64365868     0.07100
H1107       H  0.35837506  0.60083060  0.74373272     0.07000
C1108       C  0.17756893  0.65419862  0.68544934     0.04000
C1109       C  0.17058192  0.64495081  0.72203923    -0.12200
C1110       C  0.19354783  0.64042958  0.74315097     0.01500
C1111       C  0.22465580  0.64721231  0.72761948    -0.10700
C1112       C  0.23209030  0.65693759  0.69125970     0.04000
C1113       C  0.20792842  0.65981931  0.67025541    -0.10100
H1114       H  0.14674720  0.64010266  0.73356200     0.09600
H1115       H  0.24277755  0.64402590  0.74352115     0.07100
H1116       H  0.21286805  0.66717881  0.64204511     0.07000
O1117       O  0.03724949  0.68075277  0.56560791    -0.77600
C1118       C  0.13095903  0.76171630  0.61955020     0.83400
O1119       O  0.12202489  0.65795381  0.54685837    -0.78700
O1120       O  0.14597822  0.68094403  0.67591125    -0.80200
O1121       O  0.03749754  0.65666554  0.69462372    -0.80000
O1122       O  0.00333091  0.64540940  0.60812364    -0.78600
Zn1123     Zn  0.08347151  0.69773442  0.58458923     1.55700
O1124       O  0.09021381  0.70004804  0.69896978    -0.80000
Cd1125     Cd  0.03806400  0.64040576  0.64097013     1.58100
Cd1126     Cd  0.10341195  0.64021621  0.59977446     1.59600
O1127       O  0.02469287  0.58951708  0.63706517    -0.80000
O1128       O  0.08423987  0.66764009  0.61969995    -1.90500
Cd1129     Cd  0.11603473  0.69816791  0.65579606     1.59900
O1130       O  0.06503933  0.58941777  0.60240406    -0.80000
O1131       O  0.14380709  0.74667882  0.63660511    -0.78600
C1132       C  0.12370302  0.68322930  0.52973059     0.83900
C1133       C  0.00792506  0.66088442  0.57799178     0.83500
O1134       O  0.10292128  0.74525544  0.60295548    -0.77600
C1135       C  0.06077575  0.68193578  0.71200412     0.84400
O1136       O  0.11108879  0.70020399  0.54268030    -0.77700
C1137       C  0.03691002  0.57383955  0.61959260     0.84500
C1138       C  0.15393244  0.65990344  0.66378748     0.84800
O1139       O  0.14203837  0.64399116  0.63404127    -0.80100
C1140       C  0.47888754  0.65523798  0.55585834     0.04000
C1141       C  0.45356904  0.66053566  0.57034689    -0.12200
C1142       C  0.42590384  0.65502203  0.54901306     0.01500
C1143       C  0.42340884  0.64366207  0.51352662    -0.10700
C1144       C  0.44868053  0.63830221  0.99842683     0.04000
C1145       C  0.47676434  0.64480138  0.51963255    -0.10100
H1146       H  0.45530111  0.66874372  0.59816563     0.09600
H1147       H  0.40144032  0.63888370  0.99777824     0.07100
H1148       H  0.99622133  0.64043668  0.00858232     0.07000
C1149       C  0.48242568  0.96516818  0.86872037     0.04000
C1150       C  0.46478499  0.98310472  0.86889648    -0.12200
C1151       C  0.48229990  0.51872473  0.86894115     0.01500
C1152       C  0.01789039  0.53642918  0.86870001    -0.10700
C1153       C  0.03598100  0.51898718  0.86853697     0.04000
C1154       C  0.01802700  0.98334679  0.86852011    -0.10100
H1155       H  0.43737080  0.96931976  0.86918277     0.09600
H1156       H  0.03155515  0.56386875  0.86885261     0.07100
H1157       H  0.03180145  0.96972940  0.86854622     0.07000
O1158       O  0.24499540  0.64276719  0.89091134    -0.77600
C1159       C  0.15984315  0.65482933  0.91356173     0.83400
O1160       O  0.15508863  0.53644263  0.94412023    -0.78700
O1161       O  0.08938095  0.56633532  0.85228788    -0.80200
O1162       O  0.20268245  0.61443810  0.79314287    -0.80000
O1163       O  0.24621229  0.60348981  0.85668192    -0.78600
Zn1164     Zn  0.19660432  0.61596602  0.90725129     1.55700
O1165       O  0.15845075  0.62246952  0.79686267    -0.80000
Cd1166     Cd  0.19862677  0.58490105  0.83578941     1.59700
Cd1167     Cd  0.13960057  0.53847078  0.89059133     1.59600
O1168       O  0.18119901  0.53790932  0.81473315    -0.80000
O1169       O  0.16732448  0.58554560  0.87145278    -1.90500
Cd1170     Cd  0.14034756  0.60455690  0.84998280     1.59900
O1171       O  0.14479584  0.50432326  0.85679539    -0.80000
O1172       O  0.14422704  0.64363236  0.88354679    -0.78600
C1173       C  0.17952989  0.56020999  0.96191796     0.83900
C1174       C  0.26132584  0.63090359  0.87456256     0.83500
O1175       O  0.18009266  0.64581967  0.92569978    -0.77600
C1176       C  0.18437584  0.62544714  0.77994548     0.84400
O1177       O  0.19648145  0.58993853  0.94922448    -0.77700
C1178       C  0.16064467  0.50870805  0.82695854     0.84500
C1179       C  0.07352517  0.53794389  0.86902327     0.84800
O1180       O  0.08891397  0.52534038  0.88634176    -0.80100
C1181       C  0.15437623  0.67848043  0.93562734     0.04000
C1182       C  0.16013932  0.70912834  0.92095492    -0.12200
C1183       C  0.15658531  0.73282670  0.94219893     0.01500
C1184       C  0.14604138  0.72458560  0.97826834    -0.10700
C1185       C  0.13922360  0.69322225  0.99325270     0.04000
C1186       C  0.14443568  0.67079484  0.97195606    -0.10100
H1187       H  0.16797429  0.71458073  0.89292111     0.09600
H1188       H  0.14228412  0.74225597  0.99435998     0.07100
H1189       H  0.13942521  0.64674055  0.98307475     0.07000
C1190       C  0.05517025  0.69115377  0.74876935     0.04000
C1191       C  0.02659940  0.66954837  0.76947632    -0.12200
C1192       C  0.02390665  0.67780321  0.80555593     0.01500
C1193       C  0.04912124  0.70830137  0.82040876    -0.10700
C1194       C  0.07730911  0.73042077  0.79966850     0.04000
C1195       C  0.08044816  0.72164302  0.76433743    -0.10100
H1196       H  0.00709812  0.64586069  0.75811748     0.09600
H1197       H  0.04684966  0.71476390  0.84808650     0.07100
H1198       H  0.10276505  0.73889277  0.74902180     0.07000
O1199       O  0.35945656  0.60416695  0.89087879    -0.77600
C1200       C  0.34814500  0.50869126  0.91521804     0.83400
O1201       O  0.46663106  0.62170470  0.94432868    -0.78700
O1202       O  0.43515899  0.52507782  0.85312463    -0.80200
O1203       O  0.38887738  0.59083714  0.79294812    -0.80000
O1204       O  0.39811239  0.64467449  0.85597304    -0.78600
Zn1205     Zn  0.38728206  0.58406135  0.90775337     1.55700
O1206       O  0.37902408  0.53795048  0.79808723    -0.80000
Cd1207     Cd  0.41805816  0.61663570  0.83569388     1.59700
Cd1208     Cd  0.46414565  0.60373339  0.89092700     1.59600
O1209       O  0.46536979  0.64657514  0.81515294    -0.80000
O1210       O  0.41723477  0.58480066  0.87173760    -1.90500
Cd1211     Cd  0.39753693  0.53847110  0.85093508     1.59900
O1212       O  0.49850421  0.64270056  0.85695542    -0.80000
O1213       O  0.35860207  0.50396203  0.88490093    -0.78600
C1214       C  0.44321465  0.62323473  0.96182351     0.83900
C1215       C  0.37071360  0.63204087  0.87396930     0.83500
O1216       O  0.35793108  0.53809782  0.92746948    -0.77600
C1217       C  0.37676060  0.56104143  0.78058271     0.84400
O1218       O  0.41363763  0.61098380  0.94898604    -0.77700
C1219       C  0.49441918  0.65461614  0.82729624     0.84500
C1220       C  0.46357457  0.53749135  0.86966699     0.84800
O1221       O  0.47651506  0.56563084  0.88682239    -0.80100
C1222       C  0.02286083  0.84663375  0.93657902     0.04000
C1223       C  0.02540738  0.85658634  0.97288902    -0.12200
C1224       C  0.05347250  0.86232592  0.49370100     0.01500
C1225       C  0.07813452  0.85597094  0.97829870    -0.10700
C1226       C  0.07549340  0.84535778  0.94224299     0.04000
C1227       C  0.04779408  0.84126323  0.92148385    -0.10100
H1228       H  0.50633651  0.86135024  0.98430895     0.09600
H1229       H  0.09989315  0.86015573  0.99403805     0.07100
H1230       H  0.04515530  0.83342772  0.89344506     0.07000
O1231       O  0.13391938  0.76714209  0.81789917    -0.77600
C1232       C  0.23994358  0.84272069  0.81562518     0.83400
O1233       O  0.16063235  0.78796951  0.94334067    -0.78700
O1234       O  0.23633215  0.90391883  0.89112745    -0.80200
O1235       O  0.13420852  0.86964556  0.81603179    -0.80000
O1236       O  0.09582829  0.78306607  0.82798868    -0.78600
Zn1237     Zn  0.17244493  0.79798271  0.85128689     1.55700
O1238       O  0.18807104  0.90724613  0.82821113    -0.80000
Cd1239     Cd  0.12576575  0.83014192  0.85022579     1.59700
Cd1240     Cd  0.16758630  0.83527097  0.92490150     1.59600
O1241       O  0.09875737  0.83459145  0.89091243    -0.80000
O1242       O  0.16779413  0.83459169  0.87017307    -1.90500
Cd1243     Cd  0.20506601  0.87704298  0.85032086     1.59900
O1244       O  0.12694794  0.84209386  0.94246016    -0.80000
O1245       O  0.23589267  0.86838683  0.81626390    -0.78600
C1246       C  0.16213269  0.76479288  0.92518241     0.83900
C1247       C  0.10388853  0.76209943  0.81557875     0.83500
O1248       O  0.21846684  0.81446211  0.82945846    -0.77600
C1249       C  0.15945919  0.89966277  0.81491938     0.84400
O1250       O  0.16765366  0.76771067  0.89137945    -0.77700
C1251       C  0.10192749  0.84025035  0.92469307     0.84500
C1252       C  0.23837515  0.90092011  0.92501582     0.84800
O1253       O  0.21486997  0.87605368  0.94276427    -0.80100
O1254       O  0.39747631  0.75640834  0.89117814    -0.77600
C1255       C  0.49372626  0.84127680  0.91469480     0.83400
O1256       O  0.37947049  0.84566527  0.94359510    -0.78700
O1257       O  0.47641315  0.91174982  0.85288356    -0.80200
O1258       O  0.41163412  0.79875641  0.79338746    -0.80000
O1259       O  0.35708762  0.75475241  0.85639742    -0.78600
Zn1260     Zn  0.41819833  0.80457770  0.90777729     1.55700
O1261       O  0.46404237  0.84281768  0.79791205    -0.80000
Cd1262     Cd  0.38564395  0.80242136  0.83565149     1.59700
Cd1263     Cd  0.39771615  0.86126389  0.89028786     1.59600
O1264       O  0.35568465  0.81930023  0.81434668    -0.80000
O1265       O  0.41726259  0.83368975  0.87163137    -1.90500
Cd1266     Cd  0.46350246  0.86078101  0.85073888     1.59900
O1267       O  0.35851606  0.85579841  0.85620755    -0.80000
O1268       O  0.49827606  0.85673594  0.88455422    -0.78600
C1269       C  0.37844031  0.82111846  0.96150051     0.83900
C1270       C  0.36950398  0.73988427  0.87445985     0.83500
O1271       O  0.46439499  0.82124787  0.92694750    -0.77600
C1272       C  0.44122522  0.81698950  0.78072762     0.84400
O1273       O  0.39140788  0.80426320  0.94915680    -0.77700
C1274       C  0.34695760  0.83977635  0.82649239     0.84500
C1275       C  0.46371334  0.92756744  0.86923963     0.84800
O1276       O  0.43544647  0.91208967  0.88614736    -0.80100
C1277       C  0.32333684  0.84536985  0.80475028     0.04000
C1278       C  0.33116194  0.85582849  0.76844283    -0.12200
C1279       C  0.30938384  0.86258098  0.74787882     0.01500
C1280       C  0.27910242  0.85744013  0.76373534    -0.10700
C1281       C  0.27078860  0.84617430  0.79931656     0.04000
C1282       C  0.29306201  0.84034113  0.81996942    -0.10100
H1283       H  0.35476783  0.86006234  0.75687568     0.09600
H1284       H  0.26179797  0.86248555  0.74857472     0.07100
H1285       H  0.28704437  0.83227971  0.84789745     0.07000
C1286       C  0.32412195  0.97969198  0.93716591     0.04000
C1287       C  0.29376573  0.95489776  0.92197490    -0.12200
C1288       C  0.26982225  0.92734015  0.94272235     0.01500
C1289       C  0.27743397  0.92471282  0.97889118    -0.10700
C1290       C  0.30853649  0.94917105  0.49438017     0.04000
C1291       C  0.33125655  0.97714243  0.97357856    -0.10100
H1292       H  0.28880399  0.95752810  0.89384935     0.09600
H1293       H  0.25956741  0.90301943  0.99460786     0.07100
H1294       H  0.35516919  0.49606897  0.98506671     0.07000
C1295       C  0.13819836  0.94878198  0.74791426     0.04000
C1296       C  0.14378946  0.92377999  0.76343024    -0.12200
C1297       C  0.15506978  0.92663146  0.79897742     0.01500
C1298       C  0.16038884  0.95441282  0.81996033    -0.10700
C1299       C  0.15487954  0.97947333  0.80511083     0.04000
C1300       C  0.14442425  0.97699023  0.76883341    -0.10100
H1301       H  0.13918383  0.90167897  0.74800880     0.09600
H1302       H  0.16860657  0.95643250  0.84781451     0.07100
H1303       H  0.13994268  0.49629249  0.75750740     0.07000
C1304       C  0.35178229  0.65006070  0.87524248     0.04000
C1305       C  0.31634666  0.63208406  0.87553198    -0.12200
C1306       C  0.29834147  0.64949139  0.87578590     0.01500
C1307       C  0.31590418  0.68490116  0.87596231    -0.10700
C1308       C  0.35128176  0.70291895  0.87568209     0.04000
C1309       C  0.36915751  0.68547048  0.87541579    -0.10100
H1310       H  0.30282698  0.60464329  0.87511934     0.09600
H1311       H  0.30205433  0.69845082  0.87582309     0.07100
H1312       H  0.39657886  0.69944789  0.87493369     0.07000
C1313       C  0.96403898  0.48274188  0.11968435     0.04000
C1314       C  0.98226236  0.01838162  0.11954970    -0.12200
C1315       C  0.51785832  0.03627438  0.11942871     0.01500
C1316       C  0.53521918  0.01810830  0.11947023    -0.10700
C1317       C  0.51747948  0.48249716  0.11964922     0.04000
C1318       C  0.98189111  0.46501923  0.11972449    -0.10100
H1319       H  0.96872185  0.03223163  0.11959667     0.09600
H1320       H  0.56263567  0.03173779  0.11945830     0.07100
H1321       H  0.96807193  0.43758071  0.11988309     0.07000
C1322       C  0.64852971  0.35173471  0.11851237     0.04000
C1323       C  0.63109058  0.31626039  0.11864413    -0.12200
C1324       C  0.64899568  0.29876920  0.11888276     0.01500
C1325       C  0.68438336  0.31686564  0.11884793    -0.10700
C1326       C  0.70187006  0.35226091  0.11876613     0.04000
C1327       C  0.68391245  0.36964614  0.11853041    -0.10100
H1328       H  0.60367124  0.30231460  0.11879195     0.09600
H1329       H  0.69832896  0.30341356  0.11912074     0.07100
H1330       H  0.69747249  0.39709318  0.11861480     0.07000
C1331       C  0.84427328  0.32397425  0.05463433     0.04000
C1332       C  0.83902590  0.29337026  0.06929547    -0.12200
C1333       C  0.84543895  0.27155722  0.04843551     0.01500
C1334       C  0.85759380  0.28075133  0.01320516    -0.10700
C1335       C  0.86281474  0.31129963  0.49788245     0.04000
C1336       C  0.85543022  0.33253887  0.01862126    -0.10100
H1337       H  0.83046523  0.28680022  0.09701316     0.09600
H1338       H  0.86313275  0.26389156  0.49783440     0.07100
H1339       H  0.85981333  0.35636415  0.50747038     0.07000
O1340       O  0.64430581  0.46512885  0.06540067    -0.77600
C1341       C  0.62993080  0.37011189  0.11908230     0.83400
O1342       O  0.53561612  0.37900374  0.04768628    -0.78700
O1343       O  0.53655933  0.35744161  0.17789503    -0.80200
O1344       O  0.62006072  0.46553969  0.19404340    -0.80000
O1345       O  0.64174640  0.49894467  0.10721964    -0.78600
Zn1346     Zn  0.61462936  0.41866310  0.08427735     1.55700
O1347       O  0.61238020  0.41344545  0.19825701    -0.80000
Cd1348     Cd  0.60253455  0.46414207  0.14052528     1.59700
Cd1349     Cd  0.53698862  0.39776975  0.10049483     1.59600
O1350       O  0.56443730  0.47657441  0.13684124    -0.80000
O1351       O  0.58394888  0.41791024  0.11963236    -1.90500
Cd1352     Cd  0.58326354  0.38682811  0.15622923     1.59900
O1353       O  0.52362457  0.43535552  0.10323334    -0.80000
O1354       O  0.60238951  0.35786314  0.13671125    -0.78600
C1355       C  0.55928652  0.37797248  0.03006735     0.83900
C1356       C  0.65314961  0.49444457  0.07743483     0.83500
O1357       O  0.64179668  0.39810515  0.10221048    -0.77600
C1358       C  0.62312411  0.44281314  0.21124369     0.84400
O1359       O  0.58913645  0.39128145  0.04245382    -0.77700
C1360       C  0.53618803  0.46371883  0.11993813     0.84500
C1361       C  0.50737512  0.34818019  0.16540685     0.84800
O1362       O  0.50299405  0.35893451  0.13507985    -0.80100
C1363       C  0.68918407  0.05476569  0.49850712     0.04000
C1364       C  0.66782230  0.02624663  0.01940582    -0.12200
C1365       C  0.67642102  0.02367111  0.05536720     0.01500
C1366       C  0.70711903  0.04890327  0.06984564    -0.10700
C1367       C  0.72906681  0.07702573  0.04885457     0.04000
C1368       C  0.71985346  0.08009121  0.01367554    -0.10100
H1369       H  0.64398229  0.50676426  0.50833421     0.09600
H1370       H  0.71382176  0.04674636  0.09745365     0.07100
H1371       H  0.73688990  0.10235087  0.49813321     0.07000
C1372       C  0.97815347  0.32416775  0.18704330     0.04000
C1373       C  0.95340635  0.29399992  0.17147816    -0.12200
C1374       C  0.92585922  0.26981485  0.19197950     0.01500
C1375       C  0.92317991  0.27695151  0.22830460    -0.10700
C1376       C  0.94755536  0.30788634  0.24420876     0.04000
C1377       C  0.97552542  0.33089560  0.22359053    -0.10100
H1378       H  0.95610867  0.28932848  0.14327313     0.09600
H1379       H  0.90147873  0.25883023  0.24381424     0.07100
H1380       H  0.49445794  0.35466177  0.23536669     0.07000
O1381       O  0.81346774  0.21878424  0.07796051    -0.77600
C1382       C  0.76087323  0.10373265  0.06447659     0.83400
O1383       O  0.78707594  0.16110216  0.19196662    -0.78700
O1384       O  0.83318362  0.09876743  0.14036019    -0.80200
O1385       O  0.90616077  0.18813071  0.07740424    -0.80000
O1386       O  0.86741907  0.23629322  0.06506843    -0.78600
Zn1387     Zn  0.79679652  0.17258263  0.09988050     1.55700
O1388       O  0.86878854  0.13405906  0.06558430    -0.80000
Cd1389     Cd  0.87591337  0.20526328  0.09917075     1.59700
Cd1390     Cd  0.83404252  0.16787406  0.17356171     1.59600
O1391       O  0.90270783  0.23656124  0.14010519    -0.80000
O1392       O  0.83338733  0.16790635  0.11885162    -1.90500
Cd1393     Cd  0.82895536  0.12567760  0.09928116     1.59900
O1394       O  0.87462952  0.21497921  0.19157852    -0.80000
O1395       O  0.78188323  0.09572066  0.07688500    -0.78600
C1396       C  0.76383455  0.16248500  0.17390772     0.83900
C1397       C  0.84179382  0.24039186  0.06434648     0.83500
O1398       O  0.76592043  0.13381183  0.06665963    -0.77600
C1399       C  0.89875778  0.15940308  0.06448757     0.84400
O1400       O  0.76653627  0.16787180  0.14006197    -0.77700
C1401       C  0.89955963  0.23850778  0.17398816     0.84500
C1402       C  0.83885111  0.10222102  0.17414486     0.84800
O1403       O  0.84071951  0.12739204  0.19160177    -0.80100
O1404       O  0.81890619  0.35704427  0.06471583    -0.77600
C1405       C  0.73882357  0.37102090  0.11944154     0.83400
O1406       O  0.84306342  0.46636115  0.04834771    -0.78700
O1407       O  0.81967050  0.46508207  0.17790165    -0.80200
O1408       O  0.84374597  0.38021361  0.19362389    -0.80000
O1409       O  0.85457643  0.35848167  0.10670757    -0.78600
Zn1410     Zn  0.80267658  0.38694505  0.08424413     1.55700
O1411       O  0.80035312  0.38933537  0.19878057    -0.80000
Cd1412     Cd  0.85986397  0.39793956  0.14018587     1.59700
Cd1413     Cd  0.86014951  0.46430739  0.10104089     1.59600
O1414       O  0.91078228  0.43563288  0.13649616    -0.80000
O1415       O  0.83264591  0.41723066  0.11989929    -1.90500
Cd1416     Cd  0.80235705  0.41813819  0.15660457     1.59900
O1417       O  0.91091365  0.47706894  0.10360303    -0.80000
O1418       O  0.75402808  0.39834495  0.13748345    -0.78600
C1419       C  0.81810184  0.44299452  0.03069024     0.83900
C1420       C  0.83879016  0.34750661  0.07678503     0.83500
O1421       O  0.75499204  0.35957385  0.10207696    -0.77600
C1422       C  0.81847200  0.37782874  0.21127034     0.84400
O1423       O  0.80112028  0.41306993  0.04291063    -0.77700
C1424       C  0.92648010  0.46409982  0.11992780     0.84500
C1425       C  0.84030861  0.49425606  0.16569528     0.84800
O1426       O  0.85594532  0.49852655  0.13572948    -0.80100
C1427       C  0.86111149  0.05466971  0.24414297     0.04000
C1428       C  0.85573532  0.02651738  0.22363252    -0.12200
C1429       C  0.84585778  0.02363077  0.18724436     0.01500
C1430       C  0.84029602  0.04829363  0.17174017    -0.10700
C1431       C  0.84405431  0.07603148  0.19213669     0.04000
C1432       C  0.85448248  0.07900547  0.22829213    -0.10100
H1433       H  0.86061220  0.50761744  0.23536217     0.09600
H1434       H  0.83251763  0.04538138  0.14365923     0.07100
H1435       H  0.85837529  0.10083084  0.24373279     0.07000
C1436       C  0.67756901  0.15419876  0.18544934     0.04000
C1437       C  0.67058199  0.14495097  0.22203929    -0.12200
C1438       C  0.69354791  0.14042966  0.24315104     0.01500
C1439       C  0.72465590  0.14721232  0.22761956    -0.10700
C1440       C  0.73209033  0.15693757  0.19125972     0.04000
C1441       C  0.70792845  0.15981930  0.17025541    -0.10100
H1442       H  0.64674767  0.14010287  0.23356181     0.09600
H1443       H  0.74277728  0.14402593  0.24352089     0.07100
H1444       H  0.71286803  0.16717866  0.14204520     0.07000
O1445       O  0.53724954  0.18075270  0.06560798    -0.77600
C1446       C  0.63095900  0.26171627  0.11955018     0.83400
O1447       O  0.62202500  0.15795380  0.04685833    -0.78700
O1448       O  0.64597815  0.18094399  0.17591119    -0.80200
O1449       O  0.53749761  0.15666551  0.19462370    -0.80000
O1450       O  0.50333083  0.14540933  0.10812361    -0.78600
Zn1451     Zn  0.58347162  0.19773438  0.08458920     1.55700
O1452       O  0.59021383  0.20004806  0.19896986    -0.80000
Cd1453     Cd  0.53806392  0.14040572  0.14097005     1.58100
Cd1454     Cd  0.60341203  0.14021617  0.09977458     1.59600
O1455       O  0.52469276  0.08951703  0.13706527    -0.80000
O1456       O  0.58423991  0.16764004  0.11970005    -1.90500
Cd1457     Cd  0.61603464  0.19816787  0.15579621     1.59900
O1458       O  0.56503925  0.08941774  0.10240419    -0.80000
O1459       O  0.64380702  0.24667881  0.13660523    -0.78600
C1460       C  0.62370316  0.18322934  0.02973060     0.83900
C1461       C  0.50792507  0.16088437  0.07799177     0.83500
O1462       O  0.60292120  0.24525537  0.10295558    -0.77600
C1463       C  0.56077578  0.18193577  0.21200415     0.84400
O1464       O  0.61108895  0.20020401  0.04268037    -0.77700
C1465       C  0.53690991  0.07383952  0.11959268     0.84500
C1466       C  0.65393245  0.15990346  0.16378744     0.84800
O1467       O  0.64203839  0.14399111  0.13404126    -0.80100
C1468       C  0.97888751  0.15523798  0.05585837     0.04000
C1469       C  0.95356898  0.16053562  0.07034679    -0.12200
C1470       C  0.92590383  0.15502209  0.04901304     0.01500
C1471       C  0.92340873  0.14366209  0.01352656    -0.10700
C1472       C  0.94868050  0.13830218  0.49842681     0.04000
C1473       C  0.97676424  0.14480140  0.01963259    -0.10100
H1474       H  0.95530107  0.16874388  0.09816633     0.09600
H1475       H  0.90144001  0.13888375  0.49777789     0.07100
H1476       H  0.49622094  0.14043663  0.50858249     0.07000
C1477       C  0.98242568  0.46516816  0.36872045     0.04000
C1478       C  0.96478500  0.48310471  0.36889664    -0.12200
C1479       C  0.98229992  0.01872477  0.36894128     0.01500
C1480       C  0.51789036  0.03642917  0.36870017    -0.10700
C1481       C  0.53598094  0.01898715  0.36853710     0.04000
C1482       C  0.51802709  0.48334676  0.36852009    -0.10100
H1483       H  0.93737072  0.46931969  0.36918288     0.09600
H1484       H  0.53155519  0.06386884  0.36885273     0.07100
H1485       H  0.53180123  0.46972974  0.36854602     0.07000
O1486       O  0.74499547  0.14276719  0.39091150    -0.77600
C1487       C  0.65984314  0.15482935  0.41356178     0.83400
O1488       O  0.65508869  0.03644267  0.44412014    -0.78700
O1489       O  0.58938086  0.06633531  0.35228805    -0.80200
O1490       O  0.70268246  0.11443807  0.29314295    -0.80000
O1491       O  0.74621230  0.10348979  0.35668209    -0.78600
Zn1492     Zn  0.69660440  0.11596600  0.40725121     1.55700
O1493       O  0.65845086  0.12246966  0.29686278    -0.80000
Cd1494     Cd  0.69862671  0.08490102  0.33578956     1.59700
Cd1495     Cd  0.63960059  0.03847096  0.39059144     1.59600
O1496       O  0.68119909  0.03790936  0.31473318    -0.80000
O1497       O  0.66732447  0.08554571  0.37145277    -1.90500
Cd1498     Cd  0.64034747  0.10455690  0.34998293     1.59900
O1499       O  0.64479602  0.00432333  0.35679550    -0.80000
O1500       O  0.64422700  0.14363244  0.38354686    -0.78600
C1501       C  0.67952988  0.06021004  0.46191790     0.83900
C1502       C  0.76132588  0.13090363  0.37456263     0.83500
O1503       O  0.68009271  0.14581967  0.42569969    -0.77600
C1504       C  0.68437589  0.12544717  0.27994556     0.84400
O1505       O  0.69648142  0.08993856  0.44922442    -0.77700
C1506       C  0.66064482  0.00870811  0.32695859     0.84500
C1507       C  0.57352510  0.03794383  0.36902336     0.84800
O1508       O  0.58891392  0.02534031  0.38634175    -0.80100
C1509       C  0.65437619  0.17848042  0.43562742     0.04000
C1510       C  0.66013922  0.20912831  0.42095509    -0.12200
C1511       C  0.65658522  0.23282668  0.44219895     0.01500
C1512       C  0.64604130  0.22458562  0.47826839    -0.10700
C1513       C  0.63922358  0.19322229  0.49325274     0.04000
C1514       C  0.64443559  0.17079485  0.47195612    -0.10100
H1515       H  0.66797442  0.21458085  0.39292066     0.09600
H1516       H  0.64228406  0.24225589  0.49435991     0.07100
H1517       H  0.63942506  0.14674039  0.48307493     0.07000
C1518       C  0.55517026  0.19115382  0.24876934     0.04000
C1519       C  0.52659947  0.16954854  0.26947633    -0.12200
C1520       C  0.52390667  0.17780329  0.30555590     0.01500
C1521       C  0.54912123  0.20830144  0.32040877    -0.10700
C1522       C  0.57730910  0.23042083  0.29966846     0.04000
C1523       C  0.58044812  0.22164308  0.26433744    -0.10100
H1524       H  0.50709777  0.14586034  0.25811721     0.09600
H1525       H  0.54684966  0.21476385  0.34808631     0.07100
H1526       H  0.60276536  0.23889307  0.24902163     0.07000
O1527       O  0.85945659  0.10416707  0.39087883    -0.77600
C1528       C  0.84814494  0.00869127  0.41521801     0.83400
O1529       O  0.96663117  0.12170488  0.44432862    -0.78700
O1530       O  0.93515905  0.02507789  0.35312465    -0.80200
O1531       O  0.88887750  0.09083719  0.29294812    -0.80000
O1532       O  0.89811232  0.14467452  0.35597294    -0.78600
Zn1533     Zn  0.88728221  0.08406151  0.40775350     1.55700
O1534       O  0.87902425  0.03795056  0.29808716    -0.80000
Cd1535     Cd  0.91805810  0.11663568  0.33569383     1.59700
Cd1536     Cd  0.96414574  0.10373338  0.39092711     1.59600
O1537       O  0.96536982  0.14657509  0.31515286    -0.80000
O1538       O  0.91723479  0.08480071  0.37173770    -1.90500
Cd1539     Cd  0.89753710  0.03847125  0.35093502     1.59900
O1540       O  0.99850425  0.14270071  0.35695548    -0.80000
O1541       O  0.85860207  0.00396203  0.38490093    -0.78600
C1542       C  0.94321471  0.12323477  0.46182347     0.83900
C1543       C  0.87071360  0.13204096  0.37396930     0.83500
O1544       O  0.85793100  0.03809784  0.42746943    -0.77600
C1545       C  0.87676073  0.06104150  0.28058268     0.84400
O1546       O  0.91363768  0.11098376  0.44898604    -0.77700
C1547       C  0.99441922  0.15461622  0.32729625     0.84500
C1548       C  0.96357461  0.03749140  0.36966703     0.84800
O1549       O  0.97651509  0.06563090  0.38682240    -0.80100
C1550       C  0.52286082  0.34663369  0.43657901     0.04000
C1551       C  0.52540732  0.35658631  0.47288905    -0.12200
C1552       C  0.55347251  0.36232597  0.99370100     0.01500
C1553       C  0.57813458  0.35597092  0.47829878    -0.10700
C1554       C  0.57549345  0.34535775  0.44224302     0.04000
C1555       C  0.54779413  0.34126319  0.42148399    -0.10100
H1556       H  0.00633650  0.36135025  0.48430896     0.09600
H1557       H  0.59989295  0.36015568  0.49403793     0.07100
H1558       H  0.54515533  0.33342752  0.39344463     0.07000
O1559       O  0.63391944  0.26714205  0.31789908    -0.77600
C1560       C  0.73994350  0.34272066  0.31562511     0.83400
O1561       O  0.66063242  0.28796953  0.44334080    -0.78700
O1562       O  0.73633217  0.40391872  0.39112742    -0.80200
O1563       O  0.63420860  0.36964553  0.31603195    -0.80000
O1564       O  0.59582838  0.28306608  0.32798864    -0.78600
Zn1565     Zn  0.67244508  0.29798287  0.35128682     1.55700
O1566       O  0.68807107  0.40724614  0.32821126    -0.80000
Cd1567     Cd  0.62576582  0.33014187  0.35022593     1.59700
Cd1568     Cd  0.66758623  0.33527092  0.42490145     1.59600
O1569       O  0.59875733  0.33459140  0.39091238    -0.80000
O1570       O  0.66779412  0.33459168  0.37017314    -1.90500
Cd1571     Cd  0.70506592  0.37704293  0.35032080     1.59900
O1572       O  0.62694799  0.34209381  0.44246005    -0.80000
O1573       O  0.73589254  0.36838676  0.31626378    -0.78600
C1574       C  0.66213267  0.26479290  0.42518247     0.83900
C1575       C  0.60388858  0.26209941  0.31557871     0.83500
O1576       O  0.71846685  0.31446214  0.32945854    -0.77600
C1577       C  0.65945921  0.39966276  0.31491953     0.84400
O1578       O  0.66765364  0.26771077  0.39137948    -0.77700
C1579       C  0.60192753  0.34025033  0.42469303     0.84500
C1580       C  0.73837513  0.40092006  0.42501582     0.84800
O1581       O  0.71486988  0.37605369  0.44276430    -0.80100
O1582       O  0.89747640  0.25640832  0.39117824    -0.77600
C1583       C  0.99372628  0.34127684  0.41469474     0.83400
O1584       O  0.87947056  0.34566521  0.44359504    -0.78700
O1585       O  0.97641316  0.41174981  0.35288347    -0.80200
O1586       O  0.91163415  0.29875635  0.29338743    -0.80000
O1587       O  0.85708777  0.25475253  0.35639754    -0.78600
Zn1588     Zn  0.91819843  0.30457768  0.40777719     1.55700
O1589       O  0.96404233  0.34281773  0.29791201    -0.80000
Cd1590     Cd  0.88564406  0.30242134  0.33565142     1.59700
Cd1591     Cd  0.89771606  0.36126386  0.39028778     1.59600
O1592       O  0.85568469  0.31930019  0.31434677    -0.80000
O1593       O  0.91726258  0.33368982  0.37163128    -1.90500
Cd1594     Cd  0.96350238  0.36078099  0.35073880     1.59900
O1595       O  0.85851600  0.35579841  0.35620753    -0.80000
O1596       O  0.99827605  0.35673607  0.38455421    -0.78600
C1597       C  0.87844038  0.32111842  0.46150046     0.83900
C1598       C  0.86950408  0.23988432  0.37445995     0.83500
O1599       O  0.96439503  0.32124780  0.42694737    -0.77600
C1600       C  0.94122523  0.31698950  0.28072760     0.84400
O1601       O  0.89140796  0.30426316  0.44915676    -0.77700
C1602       C  0.84695757  0.33977630  0.32649241     0.84500
C1603       C  0.96371336  0.42756741  0.36923963     0.84800
O1604       O  0.93544653  0.41208960  0.38614745    -0.80100
C1605       C  0.82333682  0.34536983  0.30475026     0.04000
C1606       C  0.83116204  0.35582862  0.26844282    -0.12200
C1607       C  0.80938393  0.36258116  0.24787884     0.01500
C1608       C  0.77910252  0.35744025  0.26373534    -0.10700
C1609       C  0.77078856  0.34617432  0.29931650     0.04000
C1610       C  0.79306204  0.34034128  0.31996940    -0.10100
H1611       H  0.85476771  0.36006242  0.25687576     0.09600
H1612       H  0.76179787  0.36248572  0.24857446     0.07100
H1613       H  0.78704437  0.33227988  0.34789756     0.07000
C1614       C  0.82412189  0.47969194  0.43716594     0.04000
C1615       C  0.79376566  0.45489774  0.42197484    -0.12200
C1616       C  0.76982225  0.42734010  0.44272238     0.01500
C1617       C  0.77743399  0.42471282  0.47889124    -0.10700
C1618       C  0.80853648  0.44917103  0.99438011     0.04000
C1619       C  0.83125663  0.47714243  0.47357856    -0.10100
H1620       H  0.78880400  0.45752804  0.39384999     0.09600
H1621       H  0.75956758  0.40301960  0.49460784     0.07100
H1622       H  0.85516863  0.99606865  0.48506652     0.07000
C1623       C  0.63819841  0.44878201  0.24791421     0.04000
C1624       C  0.64378943  0.42377997  0.26343025    -0.12200
C1625       C  0.65506980  0.42663145  0.29897746     0.01500
C1626       C  0.66038886  0.45441286  0.31996021    -0.10700
C1627       C  0.65487953  0.47947333  0.30511082     0.04000
C1628       C  0.64442420  0.47699025  0.26883336    -0.10100
H1629       H  0.63918374  0.40167887  0.24800884     0.09600
H1630       H  0.66860678  0.45643261  0.34781505     0.07100
H1631       H  0.63994276  0.99629211  0.25750764     0.07000
C1632       C  0.85178225  0.15006074  0.37524245     0.04000
C1633       C  0.81634664  0.13208411  0.37553189    -0.12200
C1634       C  0.79834150  0.14949147  0.37578583     0.01500
C1635       C  0.81590425  0.18490124  0.37596227    -0.10700
C1636       C  0.85128180  0.20291900  0.37568218     0.04000
C1637       C  0.86915752  0.18547050  0.37541590    -0.10100
H1638       H  0.80282691  0.10464329  0.37511924     0.09600
H1639       H  0.80205432  0.19845106  0.37582304     0.07100
H1640       H  0.89657879  0.19944784  0.37493388     0.07000
C1641       C  0.96403902  0.48274192  0.61968432     0.04000
C1642       C  0.98226239  0.01838165  0.61954971    -0.12200
C1643       C  0.51785838  0.03627440  0.61942866     0.01500
C1644       C  0.53521922  0.01810830  0.61947029    -0.10700
C1645       C  0.51747953  0.48249718  0.61964930     0.04000
C1646       C  0.98189109  0.46501917  0.61972452    -0.10100
H1647       H  0.96872183  0.03223167  0.61959679     0.09600
H1648       H  0.56263604  0.03173797  0.61945841     0.07100
H1649       H  0.96807219  0.43758122  0.61988311     0.07000
C1650       C  0.64852973  0.35173472  0.61851244     0.04000
C1651       C  0.63109067  0.31626042  0.61864406    -0.12200
C1652       C  0.64899571  0.29876920  0.61888283     0.01500
C1653       C  0.68438336  0.31686561  0.61884800    -0.10700
C1654       C  0.70187003  0.35226086  0.61876607     0.04000
C1655       C  0.68391243  0.36964605  0.61853045    -0.10100
H1656       H  0.60367095  0.30231446  0.61879179     0.09600
H1657       H  0.69832895  0.30341357  0.61912088     0.07100
H1658       H  0.69747277  0.39709366  0.61861486     0.07000
C1659       C  0.84427337  0.32397428  0.55463426     0.04000
C1660       C  0.83902592  0.29337029  0.56929531    -0.12200
C1661       C  0.84543885  0.27155715  0.54843543     0.01500
C1662       C  0.85759368  0.28075130  0.51320514    -0.10700
C1663       C  0.86281479  0.31129969  0.99788256     0.04000
C1664       C  0.85543023  0.33253886  0.51862114    -0.10100
H1665       H  0.83046514  0.28680018  0.59701357     0.09600
H1666       H  0.86313269  0.26389199  0.99783474     0.07100
H1667       H  0.85981330  0.35636415  0.00747052     0.07000
O1668       O  0.64430587  0.46512879  0.56540078    -0.77600
C1669       C  0.62993085  0.37011192  0.61908239     0.83400
O1670       O  0.53561622  0.37900385  0.54768632    -0.78700
O1671       O  0.53655938  0.35744159  0.67789507    -0.80200
O1672       O  0.62006074  0.46553967  0.69404347    -0.80000
O1673       O  0.64174624  0.49894462  0.60721956    -0.78600
Zn1674     Zn  0.61462939  0.41866305  0.58427740     1.55700
O1675       O  0.61238030  0.41344548  0.69825700    -0.80000
Cd1676     Cd  0.60253457  0.46414203  0.64052535     1.59700
Cd1677     Cd  0.53698865  0.39776971  0.60049490     1.59600
O1678       O  0.56443740  0.47657448  0.63684112    -0.80000
O1679       O  0.58394892  0.41791023  0.61963231    -1.90500
Cd1680     Cd  0.58326366  0.38682827  0.65622930     1.59900
O1681       O  0.52362463  0.43535553  0.60323330    -0.80000
O1682       O  0.60238961  0.35786325  0.63671140    -0.78600
C1683       C  0.55928655  0.37797247  0.53006736     0.83900
C1684       C  0.65314958  0.49444451  0.57743486     0.83500
O1685       O  0.64179674  0.39810515  0.60221053    -0.77600
C1686       C  0.62312416  0.44281313  0.71124372     0.84400
O1687       O  0.58913650  0.39128140  0.54245376    -0.77700
C1688       C  0.53618808  0.46371885  0.61993810     0.84500
C1689       C  0.50737516  0.34818012  0.66540685     0.84800
O1690       O  0.50299409  0.35893448  0.63507989    -0.80100
C1691       C  0.68918413  0.05476568  0.99850718     0.04000
C1692       C  0.66782220  0.02624662  0.51940578    -0.12200
C1693       C  0.67642104  0.02367116  0.55536714     0.01500
C1694       C  0.70711894  0.04890340  0.56984565    -0.10700
C1695       C  0.72906677  0.07702577  0.54885453     0.04000
C1696       C  0.71985345  0.08009116  0.51367544    -0.10100
H1697       H  0.64398188  0.50676382  0.00833380     0.09600
H1698       H  0.71382157  0.04674659  0.59745357     0.07100
H1699       H  0.73688984  0.10235093  0.99813338     0.07000
C1700       C  0.97815350  0.32416768  0.68704325     0.04000
C1701       C  0.95340634  0.29399987  0.67147808    -0.12200
C1702       C  0.92585920  0.26981488  0.69197948     0.01500
C1703       C  0.92317993  0.27695160  0.72830458    -0.10700
C1704       C  0.94755532  0.30788646  0.74420870     0.04000
C1705       C  0.97552543  0.33089561  0.72359045    -0.10100
H1706       H  0.95610859  0.28932844  0.64327333     0.09600
H1707       H  0.90147869  0.25883022  0.74381440     0.07100
H1708       H  0.49445806  0.35466207  0.73536667     0.07000
O1709       O  0.81346774  0.21878421  0.57796037    -0.77600
C1710       C  0.76087319  0.10373262  0.56447664     0.83400
O1711       O  0.78707591  0.16110228  0.69196670    -0.78700
O1712       O  0.83318358  0.09876734  0.64036019    -0.80200
O1713       O  0.90616068  0.18813064  0.57740430    -0.80000
O1714       O  0.86741909  0.23629318  0.56506833    -0.78600
Zn1715     Zn  0.79679647  0.17258278  0.59988036     1.55700
O1716       O  0.86878855  0.13405898  0.56558439    -0.80000
Cd1717     Cd  0.87591337  0.20526323  0.59917082     1.59700
Cd1718     Cd  0.83404237  0.16787404  0.67356178     1.59600
O1719       O  0.90270785  0.23656118  0.64010522    -0.80000
O1720       O  0.83338719  0.16790633  0.61885156    -1.90500
Cd1721     Cd  0.82895536  0.12567755  0.59928124     1.59900
O1722       O  0.87462942  0.21497931  0.69157854    -0.80000
O1723       O  0.78188317  0.09572060  0.57688506    -0.78600
C1724       C  0.76383455  0.16248506  0.67390771     0.83900
C1725       C  0.84179384  0.24039184  0.56434642     0.83500
O1726       O  0.76592040  0.13381181  0.56665970    -0.77600
C1727       C  0.89875776  0.15940304  0.56448763     0.84400
O1728       O  0.76653637  0.16787196  0.64006197    -0.77700
C1729       C  0.89955962  0.23850779  0.67398817     0.84500
C1730       C  0.83885106  0.10222097  0.67414487     0.84800
O1731       O  0.84071948  0.12739202  0.69160172    -0.80100
O1732       O  0.81890625  0.35704426  0.56471569    -0.77600
C1733       C  0.73882348  0.37102084  0.61944148     0.83400
O1734       O  0.84306347  0.46636117  0.54834780    -0.78700
O1735       O  0.81967050  0.46508204  0.67790170    -0.80200
O1736       O  0.84374596  0.38021370  0.69362390    -0.80000
O1737       O  0.85457640  0.35848160  0.60670756    -0.78600
Zn1738     Zn  0.80267659  0.38694500  0.58424401     1.55700
O1739       O  0.80035303  0.38933534  0.69878065    -0.80000
Cd1740     Cd  0.85986400  0.39793951  0.64018593     1.59700
Cd1741     Cd  0.86014954  0.46430737  0.60104100     1.59600
O1742       O  0.91078231  0.43563284  0.63649602    -0.80000
O1743       O  0.83264588  0.41723060  0.61989937    -1.90500
Cd1744     Cd  0.80235689  0.41813813  0.65660464     1.59900
O1745       O  0.91091371  0.47706906  0.60360315    -0.80000
O1746       O  0.75402795  0.39834492  0.63748335    -0.78600
C1747       C  0.81810187  0.44299456  0.53069031     0.83900
C1748       C  0.83879022  0.34750662  0.57678494     0.83500
O1749       O  0.75499195  0.35957382  0.60207682    -0.77600
C1750       C  0.81847195  0.37782875  0.71127037     0.84400
O1751       O  0.80112023  0.41306998  0.54291071    -0.77700
C1752       C  0.92648014  0.46409986  0.61992779     0.84500
C1753       C  0.84030856  0.49425605  0.66569536     0.84800
O1754       O  0.85594535  0.49852662  0.63572959    -0.80100
C1755       C  0.86111151  0.05466972  0.74414297     0.04000
C1756       C  0.85573537  0.02651733  0.72363260    -0.12200
C1757       C  0.84585777  0.02363074  0.68724441     0.01500
C1758       C  0.84029607  0.04829362  0.67174030    -0.10700
C1759       C  0.84405431  0.07603146  0.69213669     0.04000
C1760       C  0.85448245  0.07900548  0.72829217    -0.10100
H1761       H  0.86061222  0.50761747  0.73536218     0.09600
H1762       H  0.83251749  0.04538128  0.64365871     0.07100
H1763       H  0.85837513  0.10083062  0.74373268     0.07000
C1764       C  0.67756903  0.15419874  0.68544934     0.04000
C1765       C  0.67058203  0.14495095  0.72203925    -0.12200
C1766       C  0.69354790  0.14042965  0.74315098     0.01500
C1767       C  0.72465580  0.14721227  0.72761944    -0.10700
C1768       C  0.73209029  0.15693751  0.69125965     0.04000
C1769       C  0.70792844  0.15981926  0.67025538    -0.10100
H1770       H  0.64674736  0.14010282  0.73356198     0.09600
H1771       H  0.74277759  0.14402579  0.74352114     0.07100
H1772       H  0.71286807  0.16717871  0.64204503     0.07000
O1773       O  0.53724959  0.18075277  0.56560796    -0.77600
C1774       C  0.63095905  0.26171630  0.61955017     0.83400
O1775       O  0.62202502  0.15795379  0.54685835    -0.78700
O1776       O  0.64597818  0.18094401  0.67591130    -0.80200
O1777       O  0.53749750  0.15666552  0.69462376    -0.80000
O1778       O  0.50333092  0.14540934  0.60812360    -0.78600
Zn1779     Zn  0.58347165  0.19773436  0.58458924     1.55700
O1780       O  0.59021378  0.20004801  0.69896974    -0.80000
Cd1781     Cd  0.53806394  0.14040568  0.64097013     1.58100
Cd1782     Cd  0.60341206  0.14021613  0.59977445     1.59600
O1783       O  0.52469281  0.08951702  0.63706517    -0.80000
O1784       O  0.58423992  0.16763996  0.61969995    -1.90500
Cd1785     Cd  0.61603467  0.19816782  0.65579607     1.59900
O1786       O  0.56503930  0.08941772  0.60240407    -0.80000
O1787       O  0.64380705  0.24667876  0.63660510    -0.78600
C1788       C  0.62370312  0.18322929  0.52973060     0.83900
C1789       C  0.50792513  0.16088439  0.57799176     0.83500
O1790       O  0.60292130  0.24525546  0.60295546    -0.77600
C1791       C  0.56077574  0.18193580  0.71200411     0.84400
O1792       O  0.61108889  0.20020395  0.54268034    -0.77700
C1793       C  0.53690997  0.07383952  0.61959259     0.84500
C1794       C  0.65393254  0.15990355  0.66378747     0.84800
O1795       O  0.64203850  0.14399127  0.63404126    -0.80100
C1796       C  0.97888746  0.15523789  0.55585836     0.04000
C1797       C  0.95356897  0.16053559  0.57034689    -0.12200
C1798       C  0.92590383  0.15502208  0.54901303     0.01500
C1799       C  0.92340878  0.14366203  0.51352661    -0.10700
C1800       C  0.94868054  0.13830229  0.99842681     0.04000
C1801       C  0.97676429  0.14480131  0.51963256    -0.10100
H1802       H  0.95530102  0.16874363  0.59816567     0.09600
H1803       H  0.90144041  0.13888388  0.99777818     0.07100
H1804       H  0.49622126  0.14043656  0.00858236     0.07000
C1805       C  0.98242571  0.46516815  0.86872035     0.04000
C1806       C  0.96478499  0.48310466  0.86889648    -0.12200
C1807       C  0.98229991  0.01872478  0.86894113     0.01500
C1808       C  0.51789036  0.03642911  0.86870001    -0.10700
C1809       C  0.53598100  0.01898719  0.86853697     0.04000
C1810       C  0.51802712  0.48334671  0.86852011    -0.10100
H1811       H  0.93737098  0.46931975  0.86918277     0.09600
H1812       H  0.53155544  0.06386928  0.86885261     0.07100
H1813       H  0.53180109  0.46972979  0.86854621     0.07000
O1814       O  0.74499534  0.14276714  0.89091135    -0.77600
C1815       C  0.65984314  0.15482937  0.91356174     0.83400
O1816       O  0.65508872  0.03644263  0.94412018    -0.78700
O1817       O  0.58938096  0.06633531  0.85228789    -0.80200
O1818       O  0.70268256  0.11443819  0.79314290    -0.80000
O1819       O  0.74621224  0.10348976  0.85668193    -0.78600
Zn1820     Zn  0.69660425  0.11596595  0.90725130     1.55700
O1821       O  0.65845084  0.12246961  0.79686266    -0.80000
Cd1822     Cd  0.69862671  0.08490099  0.83578941     1.59700
Cd1823     Cd  0.63960061  0.03847091  0.89059132     1.59600
O1824       O  0.68119899  0.03790930  0.81473315    -0.80000
O1825       O  0.66732449  0.08554570  0.87145275    -1.90500
Cd1826     Cd  0.64034759  0.10455704  0.84998280     1.59900
O1827       O  0.64479584  0.00432326  0.85679539    -0.80000
O1828       O  0.64422708  0.14363251  0.88354676    -0.78600
C1829       C  0.67952992  0.06021001  0.96191796     0.83900
C1830       C  0.76132579  0.13090358  0.87456253     0.83500
O1831       O  0.68009258  0.14581962  0.92569979    -0.77600
C1832       C  0.68437591  0.12544719  0.77994548     0.84400
O1833       O  0.69648143  0.08993852  0.94922450    -0.77700
C1834       C  0.66064471  0.00870804  0.82695857     0.84500
C1835       C  0.57352517  0.03794386  0.86902327     0.84800
O1836       O  0.58891396  0.02534036  0.88634176    -0.80100
C1837       C  0.65437621  0.17848046  0.93562735     0.04000
C1838       C  0.66013927  0.20912834  0.92095493    -0.12200
C1839       C  0.65658529  0.23282671  0.94219890     0.01500
C1840       C  0.64604135  0.22458563  0.97826830    -0.10700
C1841       C  0.63922363  0.19322234  0.99325272     0.04000
C1842       C  0.64443570  0.17079491  0.97195609    -0.10100
H1843       H  0.66797429  0.21458077  0.89292100     0.09600
H1844       H  0.64228405  0.24225607  0.99435995     0.07100
H1845       H  0.63942526  0.14674061  0.98307484     0.07000
C1846       C  0.55517030  0.19115383  0.74876934     0.04000
C1847       C  0.52659950  0.16954853  0.76947634    -0.12200
C1848       C  0.52390666  0.17780327  0.80555591     0.01500
C1849       C  0.54912122  0.20830143  0.82040877    -0.10700
C1850       C  0.57730911  0.23042079  0.79966849     0.04000
C1851       C  0.58044820  0.22164310  0.76433743    -0.10100
H1852       H  0.50709781  0.14586040  0.75811722     0.09600
H1853       H  0.54684965  0.21476391  0.84808632     0.07100
H1854       H  0.60276509  0.23889283  0.74902184     0.07000
O1855       O  0.85945661  0.10416705  0.89087886    -0.77600
C1856       C  0.84814502  0.00869137  0.91521803     0.83400
O1857       O  0.96663116  0.12170483  0.94432866    -0.78700
O1858       O  0.93515905  0.02507793  0.85312459    -0.80200
O1859       O  0.88887759  0.09083720  0.79294805    -0.80000
O1860       O  0.89811236  0.14467448  0.85597299    -0.78600
Zn1861     Zn  0.88728225  0.08406147  0.90775337     1.55700
O1862       O  0.87902408  0.03795049  0.79808726    -0.80000
Cd1863     Cd  0.91805811  0.11663563  0.83569389     1.59700
Cd1864     Cd  0.96414576  0.10373334  0.89092700     1.59600
O1865       O  0.96536976  0.14657509  0.81515293    -0.80000
O1866       O  0.91723483  0.08480066  0.87173760    -1.90500
Cd1867     Cd  0.89753712  0.03847122  0.85093508     1.59900
O1868       O  0.99850423  0.14270067  0.85695545    -0.80000
O1869       O  0.85860213  0.00396215  0.88490093    -0.78600
C1870       C  0.94321470  0.12323475  0.96182352     0.83900
C1871       C  0.87071361  0.13204092  0.87396931     0.83500
O1872       O  0.85793112  0.03809793  0.92746948    -0.77600
C1873       C  0.87676071  0.06104148  0.78058268     0.84400
O1874       O  0.91363767  0.11098371  0.94898608    -0.77700
C1875       C  0.99441917  0.15461620  0.82729626     0.84500
C1876       C  0.96357460  0.03749140  0.86966698     0.84800
O1877       O  0.97651508  0.06563084  0.88682245    -0.80100
C1878       C  0.52286087  0.34663377  0.93657900     0.04000
C1879       C  0.52540737  0.35658631  0.97288901    -0.12200
C1880       C  0.55347247  0.36232588  0.49370103     0.01500
C1881       C  0.57813452  0.35597095  0.97829870    -0.10700
C1882       C  0.57549345  0.34535782  0.94224299     0.04000
C1883       C  0.54779412  0.34126321  0.92148385    -0.10100
H1884       H  0.00633639  0.36135015  0.98430904     0.09600
H1885       H  0.59989326  0.36015572  0.99403820     0.07100
H1886       H  0.54515531  0.33342760  0.89344513     0.07000
O1887       O  0.63391938  0.26714201  0.81789918    -0.77600
C1888       C  0.73994351  0.34272061  0.81562516     0.83400
O1889       O  0.66063226  0.28796944  0.94334069    -0.78700
O1890       O  0.73633207  0.40391873  0.89112745    -0.80200
O1891       O  0.63420850  0.36964559  0.81603183    -0.80000
O1892       O  0.59582834  0.28306602  0.82798870    -0.78600
Zn1893     Zn  0.67244495  0.29798283  0.85128689     1.55700
O1894       O  0.68807102  0.40724612  0.82821113    -0.80000
Cd1895     Cd  0.62576585  0.33014186  0.85022578     1.59700
Cd1896     Cd  0.66758623  0.33527088  0.92490151     1.59600
O1897       O  0.59875736  0.33459135  0.89091241    -0.80000
O1898       O  0.66779417  0.33459176  0.87017310    -1.90500
Cd1899     Cd  0.70506594  0.37704292  0.85032085     1.59900
O1900       O  0.62694792  0.34209377  0.94246017    -0.80000
O1901       O  0.73589259  0.36838673  0.81626391    -0.78600
C1902       C  0.66213267  0.26479288  0.92518240     0.83900
C1903       C  0.60388854  0.26209937  0.81557877     0.83500
O1904       O  0.71846678  0.31446204  0.82945845    -0.77600
C1905       C  0.65945917  0.39966279  0.81491940     0.84400
O1906       O  0.66765369  0.26771077  0.89137945    -0.77700
C1907       C  0.60192749  0.34025030  0.92469306     0.84500
C1908       C  0.73837508  0.40092001  0.92501583     0.84800
O1909       O  0.71486988  0.37605359  0.94276428    -0.80100
O1910       O  0.89747640  0.25640834  0.89117809    -0.77600
C1911       C  0.99372628  0.34127682  0.91469478     0.83400
O1912       O  0.87947060  0.34566524  0.94359510    -0.78700
O1913       O  0.97641309  0.41174979  0.85288356    -0.80200
O1914       O  0.91163413  0.29875650  0.79338741    -0.80000
O1915       O  0.85708768  0.25475247  0.85639749    -0.78600
Zn1916     Zn  0.91819837  0.30457780  0.90777728     1.55700
O1917       O  0.96404240  0.34281772  0.79791209    -0.80000
Cd1918     Cd  0.88564407  0.30242131  0.83565150     1.59700
Cd1919     Cd  0.89771609  0.36126383  0.89028786     1.59600
O1920       O  0.85568470  0.31930021  0.81434673    -0.80000
O1921       O  0.91726264  0.33368985  0.87163134    -1.90500
Cd1922     Cd  0.96350249  0.36078113  0.85073888     1.59900
O1923       O  0.85851609  0.35579846  0.85620751    -0.80000
O1924       O  0.99827605  0.35673605  0.88455426    -0.78600
C1925       C  0.87844037  0.32111842  0.96150053     0.83900
C1926       C  0.86950403  0.23988430  0.87445986     0.83500
O1927       O  0.96439503  0.32124779  0.92694745    -0.77600
C1928       C  0.94122523  0.31698959  0.78072759     0.84400
O1929       O  0.89140785  0.30426309  0.94915680    -0.77700
C1930       C  0.84695762  0.33977635  0.82649239     0.84500
C1931       C  0.96371331  0.42756743  0.86923964     0.84800
O1932       O  0.93544644  0.41208968  0.88614737    -0.80100
C1933       C  0.82333688  0.34536993  0.80475028     0.04000
C1934       C  0.83116200  0.35582863  0.76844283    -0.12200
C1935       C  0.80938389  0.36258114  0.74787886     0.01500
C1936       C  0.77910242  0.35744023  0.76373535    -0.10700
C1937       C  0.77078855  0.34617428  0.79931654     0.04000
C1938       C  0.79306205  0.34034124  0.81996939    -0.10100
H1939       H  0.85476778  0.36006240  0.75687568     0.09600
H1940       H  0.76179805  0.36248561  0.74857479     0.07100
H1941       H  0.78704435  0.33227973  0.84789761     0.07000
C1942       C  0.82412191  0.47969190  0.93716590     0.04000
C1943       C  0.79376567  0.45489769  0.92197492    -0.12200
C1944       C  0.76982220  0.42734008  0.94272237     0.01500
C1945       C  0.77743395  0.42471280  0.97889121    -0.10700
C1946       C  0.80853654  0.44917106  0.49438015     0.04000
C1947       C  0.83125659  0.47714236  0.97357851    -0.10100
H1948       H  0.78880390  0.45752803  0.89384936     0.09600
H1949       H  0.75956744  0.40301946  0.99460789     0.07100
H1950       H  0.85516886  0.99606872  0.98506658     0.07000
C1951       C  0.63819846  0.44878204  0.74791421     0.04000
C1952       C  0.64378943  0.42377998  0.76343025    -0.12200
C1953       C  0.65506977  0.42663148  0.79897743     0.01500
C1954       C  0.66038886  0.45441286  0.81996033    -0.10700
C1955       C  0.65487949  0.47947333  0.80511084     0.04000
C1956       C  0.64442423  0.47699018  0.76883343    -0.10100
H1957       H  0.63918374  0.40167892  0.74800884     0.09600
H1958       H  0.66860664  0.45643257  0.84781446     0.07100
H1959       H  0.63994276  0.99629225  0.75750757     0.07000
C1960       C  0.85178229  0.15006074  0.87524248     0.04000
C1961       C  0.81634665  0.13208409  0.87553198    -0.12200
C1962       C  0.79834146  0.14949142  0.87578589     0.01500
C1963       C  0.81590417  0.18490121  0.87596231    -0.10700
C1964       C  0.85128179  0.20291897  0.87568208     0.04000
C1965       C  0.86915749  0.18547048  0.87541579    -0.10100
H1966       H  0.80282701  0.10464337  0.87511934     0.09600
H1967       H  0.80205451  0.19845074  0.87582309     0.07100
H1968       H  0.89657908  0.19944800  0.87493370     0.07000
C1969       C  0.96403898  0.98274188  0.11968437     0.04000
C1970       C  0.98226238  0.51838160  0.11954969    -0.12200
C1971       C  0.51785834  0.53627441  0.11942871     0.01500
C1972       C  0.53521915  0.51810828  0.11947023    -0.10700
C1973       C  0.51747947  0.98249716  0.11964923     0.04000
C1974       C  0.98189106  0.96501915  0.11972449    -0.10100
H1975       H  0.96872166  0.53223174  0.11959667     0.09600
H1976       H  0.56263602  0.53173796  0.11945830     0.07100
H1977       H  0.96807217  0.93758120  0.11988308     0.07000
C1978       C  0.64852970  0.85173470  0.11851236     0.04000
C1979       C  0.63109061  0.81626041  0.11864413    -0.12200
C1980       C  0.64899568  0.79876919  0.11888276     0.01500
C1981       C  0.68438334  0.81686558  0.11884793    -0.10700
C1982       C  0.70187004  0.85226083  0.11876613     0.04000
C1983       C  0.68391241  0.86964600  0.11853041    -0.10100
H1984       H  0.60367093  0.80231447  0.11879196     0.09600
H1985       H  0.69832894  0.80341348  0.11912072     0.07100
H1986       H  0.69747272  0.89709356  0.11861479     0.07000
C1987       C  0.84427330  0.82397426  0.05463433     0.04000
C1988       C  0.83902594  0.79337030  0.06929546    -0.12200
C1989       C  0.84543892  0.77155720  0.04843552     0.01500
C1990       C  0.85759363  0.78075125  0.01320512    -0.10700
C1991       C  0.86281477  0.81129965  0.49788247     0.04000
C1992       C  0.85543026  0.83253891  0.01862125    -0.10100
H1993       H  0.83046525  0.78680028  0.09701329     0.09600
H1994       H  0.86313263  0.76389174  0.49783460     0.07100
H1995       H  0.85981341  0.85636416  0.50747045     0.07000
O1996       O  0.64430577  0.96512873  0.06540070    -0.77600
C1997       C  0.62993083  0.87011193  0.11908230     0.83400
O1998       O  0.53561617  0.87900384  0.04768626    -0.78700
O1999       O  0.53655937  0.85744169  0.17789499    -0.80200
O2000       O  0.62006067  0.96553964  0.19404339    -0.80000
O2001       O  0.64174621  0.99894455  0.10721958    -0.78600
Zn2002     Zn  0.61462930  0.91866297  0.08427734     1.55700
O2003       O  0.61238024  0.91344544  0.19825703    -0.80000
Cd2004     Cd  0.60253457  0.96414212  0.14052528     1.59700
Cd2005     Cd  0.53698867  0.89776983  0.10049482     1.59600
O2006       O  0.56443734  0.97657450  0.13684125    -0.80000
O2007       O  0.58394888  0.91791021  0.11963237    -1.90500
Cd2008     Cd  0.58326359  0.88682818  0.15622924     1.59900
O2009       O  0.52362464  0.93535559  0.10323333    -0.80000
O2010       O  0.60238956  0.85786323  0.13671126    -0.78600
C2011       C  0.55928651  0.87797247  0.03006735     0.83900
C2012       C  0.65314952  0.99444446  0.07743485     0.83500
O2013       O  0.64179674  0.89810520  0.10221049    -0.77600
C2014       C  0.62312410  0.94281313  0.21124370     0.84400
O2015       O  0.58913643  0.89128132  0.04245384    -0.77700
C2016       C  0.53618807  0.96371889  0.11993813     0.84500
C2017       C  0.50737516  0.84818024  0.16540679     0.84800
O2018       O  0.50299410  0.85893460  0.13507981    -0.80100
C2019       C  0.68918405  0.55476559  0.49850710     0.04000
C2020       C  0.66782231  0.52624659  0.01940575    -0.12200
C2021       C  0.67642105  0.52367115  0.05536714     0.01500
C2022       C  0.70711902  0.54890331  0.06984565    -0.10700
C2023       C  0.72906680  0.57702571  0.04885452     0.04000
C2024       C  0.71985340  0.58009111  0.01367554    -0.10100
H2025       H  0.64398197  0.00676407  0.50833401     0.09600
H2026       H  0.71382166  0.54674648  0.09745339     0.07100
H2027       H  0.73688992  0.60235081  0.49813313     0.07000
C2028       C  0.97815348  0.82416778  0.18704326     0.04000
C2029       C  0.95340635  0.79399991  0.17147813    -0.12200
C2030       C  0.92585915  0.76981490  0.19197947     0.01500
C2031       C  0.92317995  0.77695160  0.22830457    -0.10700
C2032       C  0.94755539  0.80788639  0.24420876     0.04000
C2033       C  0.97552544  0.83089566  0.22359048    -0.10100
H2034       H  0.95610866  0.78932842  0.14327330     0.09600
H2035       H  0.90147854  0.75883008  0.24381447     0.07100
H2036       H  0.49445798  0.85466185  0.23536668     0.07000
O2037       O  0.81346770  0.71878417  0.07796045    -0.77600
C2038       C  0.76087320  0.60373256  0.06447658     0.83400
O2039       O  0.78707598  0.66110223  0.19196662    -0.78700
O2040       O  0.83318366  0.59876747  0.14036020    -0.80200
O2041       O  0.90616071  0.68813059  0.07740425    -0.80000
O2042       O  0.86741908  0.73629323  0.06506847    -0.78600
Zn2043     Zn  0.79679640  0.67258268  0.09988050     1.55700
O2044       O  0.86878850  0.63405895  0.06558430    -0.80000
Cd2045     Cd  0.87591332  0.70526315  0.09917074     1.59700
Cd2046     Cd  0.83404247  0.66787395  0.17356171     1.59600
O2047       O  0.90270779  0.73656111  0.14010520    -0.80000
O2048       O  0.83338728  0.66790633  0.11885160    -1.90500
Cd2049     Cd  0.82895530  0.62567748  0.09928115     1.59900
O2050       O  0.87462948  0.71497918  0.19157854    -0.80000
O2051       O  0.78188317  0.59572052  0.07688501    -0.78600
C2052       C  0.76383460  0.66248510  0.17390774     0.83900
C2053       C  0.84179381  0.74039183  0.06434648     0.83500
O2054       O  0.76592039  0.63381174  0.06665966    -0.77600
C2055       C  0.89875773  0.65940298  0.06448756     0.84400
O2056       O  0.76653629  0.66787190  0.14006199    -0.77700
C2057       C  0.89955960  0.73850774  0.17398816     0.84500
C2058       C  0.83885115  0.60222105  0.17414487     0.84800
O2059       O  0.84071955  0.62739206  0.19160178    -0.80100
O2060       O  0.81890623  0.85704430  0.06471581    -0.77600
C2061       C  0.73882353  0.87102080  0.11944152     0.83400
O2062       O  0.84306338  0.96636109  0.04834772    -0.78700
O2063       O  0.81967050  0.96508201  0.17790161    -0.80200
O2064       O  0.84374601  0.88021367  0.19362392    -0.80000
O2065       O  0.85457636  0.85848157  0.10670762    -0.78600
Zn2066     Zn  0.80267653  0.88694493  0.08424414     1.55700
O2067       O  0.80035302  0.88933520  0.19878055    -0.80000
Cd2068     Cd  0.85986402  0.89793962  0.14018587     1.59700
Cd2069     Cd  0.86014946  0.96430729  0.10104089     1.59600
O2070       O  0.91078230  0.93563286  0.13649611    -0.80000
O2071       O  0.83264590  0.91723065  0.11989929    -1.90500
Cd2072     Cd  0.80235699  0.91813805  0.15660457     1.59900
O2073       O  0.91091366  0.97706897  0.10360306    -0.80000
O2074       O  0.75402803  0.89834484  0.13748345    -0.78600
C2075       C  0.81810184  0.94299446  0.03069023     0.83900
C2076       C  0.83879014  0.84750658  0.07678504     0.83500
O2077       O  0.75499199  0.85957372  0.10207696    -0.77600
C2078       C  0.81847194  0.87782864  0.21127033     0.84400
O2079       O  0.80112026  0.91306985  0.04291062    -0.77700
C2080       C  0.92648011  0.96409984  0.11992782     0.84500
C2081       C  0.84030859  0.99425603  0.16569527     0.84800
O2082       O  0.85594533  0.99852656  0.13572948    -0.80100
C2083       C  0.86111151  0.55466972  0.24414296     0.04000
C2084       C  0.85573537  0.52651742  0.22363250    -0.12200
C2085       C  0.84585783  0.52363080  0.18724435     0.01500
C2086       C  0.84029597  0.54829360  0.17174017    -0.10700
C2087       C  0.84405429  0.57603147  0.19213669     0.04000
C2088       C  0.85448252  0.57900550  0.22829212    -0.10100
H2089       H  0.86061215  0.00761737  0.23536219     0.09600
H2090       H  0.83251757  0.54538132  0.14365927     0.07100
H2091       H  0.85837536  0.60083087  0.24373275     0.07000
C2092       C  0.67756898  0.65419869  0.18544933     0.04000
C2093       C  0.67058192  0.64495081  0.22203926    -0.12200
C2094       C  0.69354788  0.64042959  0.24315102     0.01500
C2095       C  0.72465592  0.64721236  0.22761956    -0.10700
C2096       C  0.73209038  0.65693767  0.19125974     0.04000
C2097       C  0.70792848  0.65981936  0.17025543    -0.10100
H2098       H  0.64674758  0.64010269  0.23356178     0.09600
H2099       H  0.74277737  0.64402599  0.24352093     0.07100
H2100       H  0.71286809  0.66717880  0.14204527     0.07000
O2101       O  0.53724958  0.68075275  0.06560799    -0.77600
C2102       C  0.63095903  0.76171633  0.11955019     0.83400
O2103       O  0.62202495  0.65795367  0.04685831    -0.78700
O2104       O  0.64597823  0.68094407  0.17591120    -0.80200
O2105       O  0.53749763  0.65666545  0.19462371    -0.80000
O2106       O  0.50333086  0.64540938  0.10812362    -0.78600
Zn2107     Zn  0.58347166  0.69773446  0.08458920     1.55700
O2108       O  0.59021382  0.70004811  0.19896985    -0.80000
Cd2109     Cd  0.53806397  0.64040580  0.14097005     1.58100
Cd2110     Cd  0.60341208  0.64021625  0.09977459     1.59600
O2111       O  0.52469281  0.58951711  0.13706526    -0.80000
O2112       O  0.58423997  0.66764014  0.11970005    -1.90500
Cd2113     Cd  0.61603470  0.69816797  0.15579622     1.59900
O2114       O  0.56503930  0.58941781  0.10240420    -0.80000
O2115       O  0.64380707  0.74667889  0.13660524    -0.78600
C2116       C  0.62370309  0.68322920  0.02973058     0.83900
C2117       C  0.50792510  0.66088439  0.07799176     0.83500
O2118       O  0.60292125  0.74525545  0.10295557    -0.77600
C2119       C  0.56077576  0.68193573  0.21200414     0.84400
O2120       O  0.61108889  0.70020388  0.04268037    -0.77700
C2121       C  0.53690995  0.57383958  0.11959268     0.84500
C2122       C  0.65393249  0.65990351  0.16378744     0.84800
O2123       O  0.64203843  0.64399120  0.13404125    -0.80100
C2124       C  0.97888755  0.65523803  0.05585835     0.04000
C2125       C  0.95356901  0.66053567  0.07034678    -0.12200
C2126       C  0.92590379  0.65502200  0.04901305     0.01500
C2127       C  0.92340867  0.64366193  0.01352660    -0.10700
C2128       C  0.94868053  0.63830224  0.49842679     0.04000
C2129       C  0.97676427  0.64480145  0.01963257    -0.10100
H2130       H  0.95530112  0.66874398  0.09816625     0.09600
H2131       H  0.90143996  0.63888377  0.49777786     0.07100
H2132       H  0.49622102  0.64043663  0.50858251     0.07000
C2133       C  0.98242565  0.96516814  0.36872044     0.04000
C2134       C  0.96478500  0.98310471  0.36889664    -0.12200
C2135       C  0.98229992  0.51872477  0.36894129     0.01500
C2136       C  0.51789037  0.53642922  0.36870017    -0.10700
C2137       C  0.53598096  0.51898721  0.36853710     0.04000
C2138       C  0.51802708  0.98334667  0.36852009    -0.10100
H2139       H  0.93737073  0.96931972  0.36918288     0.09600
H2140       H  0.53155514  0.56386881  0.36885272     0.07100
H2141       H  0.53180104  0.96972976  0.36854603     0.07000
O2142       O  0.74499548  0.64276720  0.39091150    -0.77600
C2143       C  0.65984316  0.65482933  0.41356177     0.83400
O2144       O  0.65508867  0.53644258  0.44412013    -0.78700
O2145       O  0.58938092  0.56633537  0.35228810    -0.80200
O2146       O  0.70268252  0.61443814  0.29314301    -0.80000
O2147       O  0.74621230  0.60348980  0.35668208    -0.78600
Zn2148     Zn  0.69660435  0.61596587  0.40725121     1.55700
O2149       O  0.65845081  0.62246956  0.29686275    -0.80000
Cd2150     Cd  0.69862664  0.58490089  0.33578955     1.59700
Cd2151     Cd  0.63960053  0.53847081  0.39059144     1.59600
O2152       O  0.68119892  0.53790928  0.31473309    -0.80000
O2153       O  0.66732440  0.58554558  0.37145276    -1.90500
Cd2154     Cd  0.64034751  0.60455695  0.34998294     1.59900
O2155       O  0.64479601  0.50432328  0.35679554    -0.80000
O2156       O  0.64422697  0.64363240  0.38354689    -0.78600
C2157       C  0.67952985  0.56020995  0.46191790     0.83900
C2158       C  0.76132589  0.63090363  0.37456265     0.83500
O2159       O  0.68009265  0.64581957  0.42569970    -0.77600
C2160       C  0.68437590  0.62544716  0.27994557     0.84400
O2161       O  0.69648138  0.58993849  0.44922445    -0.77700
C2162       C  0.66064473  0.50870804  0.32695859     0.84500
C2163       C  0.57352512  0.53794387  0.36902337     0.84800
O2164       O  0.58891389  0.52534025  0.38634171    -0.80100
C2165       C  0.65437626  0.67848046  0.43562741     0.04000
C2166       C  0.66013927  0.70912836  0.42095510    -0.12200
C2167       C  0.65658525  0.73282671  0.44219898     0.01500
C2168       C  0.64604132  0.72458565  0.47826842    -0.10700
C2169       C  0.63922354  0.69322229  0.49325273     0.04000
C2170       C  0.64443563  0.67079489  0.47195611    -0.10100
H2171       H  0.66797446  0.71458091  0.39292068     0.09600
H2172       H  0.64228409  0.74225590  0.49435993     0.07100
H2173       H  0.63942511  0.64674039  0.48307493     0.07000
C2174       C  0.55517024  0.69115373  0.24876936     0.04000
C2175       C  0.52659937  0.66954839  0.26947634    -0.12200
C2176       C  0.52390661  0.67780326  0.30555592     0.01500
C2177       C  0.54912119  0.70830142  0.32040876    -0.10700
C2178       C  0.57730912  0.73042077  0.29966846     0.04000
C2179       C  0.58044810  0.72164297  0.26433745    -0.10100
H2180       H  0.50709804  0.64586064  0.25811745     0.09600
H2181       H  0.54684963  0.71476389  0.34808629     0.07100
H2182       H  0.60276531  0.73889294  0.24902165     0.07000
O2183       O  0.85945655  0.60416698  0.39087877    -0.77600
C2184       C  0.84814493  0.50869128  0.41521802     0.83400
O2185       O  0.96663107  0.62170472  0.44432865    -0.78700
O2186       O  0.93515902  0.52507781  0.35312469    -0.80200
O2187       O  0.88887747  0.59083709  0.29294817    -0.80000
O2188       O  0.89811234  0.64467454  0.35597297    -0.78600
Zn2189     Zn  0.88728216  0.58406139  0.40775349     1.55700
O2190       O  0.87902417  0.53795042  0.29808714    -0.80000
Cd2191     Cd  0.91805814  0.61663576  0.33569382     1.59700
Cd2192     Cd  0.96414567  0.60373325  0.39092712     1.59600
O2193       O  0.96536985  0.64657515  0.31515288    -0.80000
O2194       O  0.91723478  0.58480070  0.37173767    -1.90500
Cd2195     Cd  0.89753705  0.53847114  0.35093502     1.59900
O2196       O  0.99850420  0.64270057  0.35695545    -0.80000
O2197       O  0.85860207  0.50396204  0.38490095    -0.78600
C2198       C  0.94321467  0.62323473  0.46182348     0.83900
C2199       C  0.87071359  0.63204092  0.37396930     0.83500
O2200       O  0.85793101  0.53809784  0.42746945    -0.77600
C2201       C  0.87676068  0.56104141  0.28058270     0.84400
O2202       O  0.91363764  0.61098379  0.44898602    -0.77700
C2203       C  0.99441921  0.65461618  0.32729625     0.84500
C2204       C  0.96357461  0.53749138  0.36966702     0.84800
O2205       O  0.97651509  0.56563089  0.38682235    -0.80100
C2206       C  0.52286083  0.84663375  0.43657901     0.04000
C2207       C  0.52540727  0.85658625  0.47288909    -0.12200
C2208       C  0.55347248  0.86232593  0.99370100     0.01500
C2209       C  0.57813462  0.85597100  0.47829876    -0.10700
C2210       C  0.57549348  0.84535784  0.44224299     0.04000
C2211       C  0.54779414  0.84126328  0.42148401    -0.10100
H2212       H  0.00633639  0.86135005  0.48430905     0.09600
H2213       H  0.59989292  0.86015572  0.49403788     0.07100
H2214       H  0.54515529  0.83342752  0.39344445     0.07000
O2215       O  0.63391946  0.76714209  0.31789904    -0.77600
C2216       C  0.73994351  0.84272066  0.31562513     0.83400
O2217       O  0.66063247  0.78796958  0.44334077    -0.78700
O2218       O  0.73633220  0.90391878  0.39112740    -0.80200
O2219       O  0.63420859  0.86964557  0.31603195    -0.80000
O2220       O  0.59582836  0.78306603  0.32798866    -0.78600
Zn2221     Zn  0.67244503  0.79798275  0.35128683     1.55700
O2222       O  0.68807107  0.90724606  0.32821126    -0.80000
Cd2223     Cd  0.62576586  0.83014194  0.35022593     1.59700
Cd2224     Cd  0.66758628  0.83527101  0.42490145     1.59600
O2225       O  0.59875727  0.83459130  0.39091240    -0.80000
O2226       O  0.66779413  0.83459167  0.37017315    -1.90500
Cd2227     Cd  0.70506588  0.87704282  0.35032080     1.59900
O2228       O  0.62694804  0.84209393  0.44246003    -0.80000
O2229       O  0.73589255  0.86838676  0.31626382    -0.78600
C2230       C  0.66213266  0.76479289  0.42518247     0.83900
C2231       C  0.60388858  0.76209940  0.31557869     0.83500
O2232       O  0.71846683  0.81446211  0.32945851    -0.77600
C2233       C  0.65945923  0.89966277  0.31491952     0.84400
O2234       O  0.66765357  0.76771066  0.39137947    -0.77700
C2235       C  0.60192753  0.84025036  0.42469302     0.84500
C2236       C  0.73837517  0.90092014  0.42501581     0.84800
O2237       O  0.71486993  0.87605378  0.44276430    -0.80100
O2238       O  0.89747636  0.75640834  0.39117818    -0.77600
C2239       C  0.99372630  0.84127686  0.41469475     0.83400
O2240       O  0.87947063  0.84566525  0.44359506    -0.78700
O2241       O  0.97641302  0.91174975  0.35288343    -0.80200
O2242       O  0.91163418  0.79875638  0.29338743    -0.80000
O2243       O  0.85708760  0.75475240  0.35639758    -0.78600
Zn2244     Zn  0.91819846  0.80457773  0.40777720     1.55700
O2245       O  0.96404236  0.84281778  0.29791202    -0.80000
Cd2246     Cd  0.88564398  0.80242119  0.33565142     1.59700
Cd2247     Cd  0.89771602  0.86126375  0.39028778     1.59600
O2248       O  0.85568463  0.81930011  0.31434682    -0.80000
O2249       O  0.91726255  0.83368972  0.37163126    -1.90500
Cd2250     Cd  0.96350240  0.86078104  0.35073880     1.59900
O2251       O  0.85851606  0.85579846  0.35620750    -0.80000
O2252       O  0.99827605  0.85673601  0.38455415    -0.78600
C2253       C  0.87844041  0.82111843  0.46150047     0.83900
C2254       C  0.86950401  0.73988428  0.37445995     0.83500
O2255       O  0.96439506  0.82124788  0.42694742    -0.77600
C2256       C  0.94122528  0.81698954  0.28072761     0.84400
O2257       O  0.89140791  0.80426310  0.44915675    -0.77700
C2258       C  0.84695760  0.83977632  0.32649240     0.84500
C2259       C  0.96371328  0.92756738  0.36923964     0.84800
O2260       O  0.93544649  0.91208960  0.38614751    -0.80100
C2261       C  0.82333683  0.84536984  0.30475026     0.04000
C2262       C  0.83116196  0.85582853  0.26844281    -0.12200
C2263       C  0.80938383  0.86258100  0.24787881     0.01500
C2264       C  0.77910237  0.85744015  0.26373528    -0.10700
C2265       C  0.77078856  0.84617432  0.29931653     0.04000
C2266       C  0.79306200  0.84034120  0.31996939    -0.10100
H2267       H  0.85476773  0.86006236  0.25687570     0.09600
H2268       H  0.76179805  0.86248547  0.24857472     0.07100
H2269       H  0.78704433  0.83227975  0.34789747     0.07000
C2270       C  0.82412192  0.97969194  0.43716594     0.04000
C2271       C  0.79376569  0.95489779  0.42197484    -0.12200
C2272       C  0.76982227  0.92734016  0.44272238     0.01500
C2273       C  0.77743401  0.92471286  0.47889122    -0.10700
C2274       C  0.80853651  0.94917100  0.99438010     0.04000
C2275       C  0.83125669  0.97714249  0.47357861    -0.10100
H2276       H  0.78880401  0.95752811  0.39384999     0.09600
H2277       H  0.75956750  0.90301956  0.49460787     0.07100
H2278       H  0.85516904  0.49606890  0.48506665     0.07000
C2279       C  0.63819844  0.94878206  0.24791422     0.04000
C2280       C  0.64378950  0.92378004  0.26343024    -0.12200
C2281       C  0.65506986  0.92663150  0.29897745     0.01500
C2282       C  0.66038883  0.95441287  0.31996023    -0.10700
C2283       C  0.65487959  0.97947340  0.30511081     0.04000
C2284       C  0.64442426  0.97699031  0.26883335    -0.10100
H2285       H  0.63918381  0.90167897  0.24800885     0.09600
H2286       H  0.66860668  0.95643257  0.34781511     0.07100
H2287       H  0.63994270  0.49629201  0.25750766     0.07000
C2288       C  0.85178228  0.65006074  0.37524247     0.04000
C2289       C  0.81634667  0.63208411  0.37553189    -0.12200
C2290       C  0.79834150  0.64949146  0.37578584     0.01500
C2291       C  0.81590425  0.68490120  0.37596227    -0.10700
C2292       C  0.85128180  0.70291898  0.37568219     0.04000
C2293       C  0.86915754  0.68547051  0.37541591    -0.10100
H2294       H  0.80282697  0.60464335  0.37511925     0.09600
H2295       H  0.80205426  0.69845103  0.37582305     0.07100
H2296       H  0.89657882  0.69944787  0.37493387     0.07000
C2297       C  0.96403901  0.98274190  0.61968433     0.04000
C2298       C  0.98226244  0.51838162  0.61954972    -0.12200
C2299       C  0.51785841  0.53627443  0.61942866     0.01500
C2300       C  0.53521926  0.51810832  0.61947029    -0.10700
C2301       C  0.51747954  0.98249719  0.61964931     0.04000
C2302       C  0.98189113  0.96501927  0.61972452    -0.10100
H2303       H  0.96872166  0.53223190  0.61959679     0.09600
H2304       H  0.56263577  0.53173783  0.61945841     0.07100
H2305       H  0.96807196  0.93758075  0.61988311     0.07000
C2306       C  0.64852970  0.85173470  0.61851245     0.04000
C2307       C  0.63109064  0.81626040  0.61864406    -0.12200
C2308       C  0.64899570  0.79876919  0.61888281     0.01500
C2309       C  0.68438337  0.81686559  0.61884800    -0.10700
C2310       C  0.70187004  0.85226086  0.61876608     0.04000
C2311       C  0.68391240  0.86964600  0.61853045    -0.10100
H2312       H  0.60367099  0.80231447  0.61879180     0.09600
H2313       H  0.69832893  0.80341360  0.61912087     0.07100
H2314       H  0.69747282  0.89709376  0.61861486     0.07000
C2315       C  0.84427331  0.82397427  0.55463426     0.04000
C2316       C  0.83902581  0.79337024  0.56929529    -0.12200
C2317       C  0.84543880  0.77155713  0.54843545     0.01500
C2318       C  0.85759366  0.78075126  0.51320512    -0.10700
C2319       C  0.86281473  0.81129967  0.99788253     0.04000
C2320       C  0.85543027  0.83253890  0.51862116    -0.10100
H2321       H  0.83046497  0.78680014  0.59701352     0.09600
H2322       H  0.86313245  0.76389183  0.99783464     0.07100
H2323       H  0.85981339  0.85636416  0.00747055     0.07000
O2324       O  0.64430591  0.96512886  0.56540078    -0.77600
C2325       C  0.62993081  0.87011191  0.61908241     0.83400
O2326       O  0.53561620  0.87900377  0.54768634    -0.78700
O2327       O  0.53655940  0.85744165  0.67789509    -0.80200
O2328       O  0.62006068  0.96553959  0.69404348    -0.80000
O2329       O  0.64174629  0.99894471  0.60721956    -0.78600
Zn2330     Zn  0.61462944  0.91866313  0.58427740     1.55700
O2331       O  0.61238032  0.91344542  0.69825699    -0.80000
Cd2332     Cd  0.60253462  0.96414211  0.64052535     1.59700
Cd2333     Cd  0.53698871  0.89776980  0.60049490     1.59600
O2334       O  0.56443739  0.97657444  0.63684116    -0.80000
O2335       O  0.58394897  0.91791029  0.61963233    -1.90500
Cd2336     Cd  0.58326361  0.88682816  0.65622929     1.59900
O2337       O  0.52362465  0.93535558  0.60323325    -0.80000
O2338       O  0.60238950  0.85786317  0.63671130    -0.78600
C2339       C  0.55928654  0.87797244  0.53006736     0.83900
C2340       C  0.65314963  0.99444459  0.57743486     0.83500
O2341       O  0.64179675  0.89810519  0.60221061    -0.77600
C2342       C  0.62312413  0.94281308  0.71124373     0.84400
O2343       O  0.58913649  0.89128134  0.54245379    -0.77700
C2344       C  0.53618810  0.96371887  0.61993810     0.84500
C2345       C  0.50737520  0.84818021  0.66540686     0.84800
O2346       O  0.50299415  0.85893457  0.63507989    -0.80100
C2347       C  0.68918411  0.55476568  0.99850712     0.04000
C2348       C  0.66782210  0.52624648  0.51940575    -0.12200
C2349       C  0.67642101  0.52367110  0.55536716     0.01500
C2350       C  0.70711893  0.54890335  0.56984564    -0.10700
C2351       C  0.72906673  0.57702575  0.54885454     0.04000
C2352       C  0.71985341  0.58009106  0.51367542    -0.10100
H2353       H  0.64398182  0.00676384  0.00833386     0.09600
H2354       H  0.71382161  0.54674653  0.59745354     0.07100
H2355       H  0.73689018  0.60235130  0.99813305     0.07000
C2356       C  0.97815351  0.82416774  0.68704326     0.04000
C2357       C  0.95340635  0.79399991  0.67147809    -0.12200
C2358       C  0.92585919  0.76981485  0.69197945     0.01500
C2359       C  0.92317989  0.77695150  0.72830460    -0.10700
C2360       C  0.94755532  0.80788640  0.74420871     0.04000
C2361       C  0.97552542  0.83089562  0.72359047    -0.10100
H2362       H  0.95610864  0.78932848  0.64327324     0.09600
H2363       H  0.90147898  0.75883036  0.74381417     0.07100
H2364       H  0.49445798  0.85466204  0.73536669     0.07000
O2365       O  0.81346772  0.71878410  0.57796034    -0.77600
C2366       C  0.76087318  0.60373260  0.56447662     0.83400
O2367       O  0.78707587  0.66110220  0.69196665    -0.78700
O2368       O  0.83318363  0.59876739  0.64036021    -0.80200
O2369       O  0.90616069  0.68813062  0.57740432    -0.80000
O2370       O  0.86741911  0.73629323  0.56506835    -0.78600
Zn2371     Zn  0.79679641  0.67258266  0.59988037     1.55700
O2372       O  0.86878853  0.63405897  0.56558437    -0.80000
Cd2373     Cd  0.87591341  0.70526330  0.59917081     1.59700
Cd2374     Cd  0.83404240  0.66787410  0.67356177     1.59600
O2375       O  0.90270783  0.73656109  0.64010524    -0.80000
O2376       O  0.83338722  0.66790635  0.61885155    -1.90500
Cd2377     Cd  0.82895531  0.62567744  0.59928123     1.59900
O2378       O  0.87462941  0.71497924  0.69157856    -0.80000
O2379       O  0.78188312  0.59572052  0.57688506    -0.78600
C2380       C  0.76383450  0.66248504  0.67390771     0.83900
C2381       C  0.84179381  0.74039181  0.56434643     0.83500
O2382       O  0.76592045  0.63381181  0.56665968    -0.77600
C2383       C  0.89875775  0.65940302  0.56448763     0.84400
O2384       O  0.76653624  0.66787186  0.64006196    -0.77700
C2385       C  0.89955961  0.73850771  0.67398818     0.84500
C2386       C  0.83885110  0.60222101  0.67414487     0.84800
O2387       O  0.84071954  0.62739208  0.69160172    -0.80100
O2388       O  0.81890628  0.85704431  0.56471570    -0.77600
C2389       C  0.73882352  0.87102090  0.61944148     0.83400
O2390       O  0.84306344  0.96636108  0.54834781    -0.78700
O2391       O  0.81967049  0.96508201  0.67790173    -0.80200
O2392       O  0.84374588  0.88021356  0.69362387    -0.80000
O2393       O  0.85457643  0.85848165  0.60670755    -0.78600
Zn2394     Zn  0.80267664  0.88694508  0.58424401     1.55700
O2395       O  0.80035309  0.88933539  0.69878068    -0.80000
Cd2396     Cd  0.85986404  0.89793958  0.64018593     1.59700
Cd2397     Cd  0.86014958  0.96430744  0.60104099     1.59600
O2398       O  0.91078232  0.93563278  0.63649602    -0.80000
O2399       O  0.83264594  0.91723070  0.61989937    -1.90500
Cd2400     Cd  0.80235694  0.91813820  0.65660464     1.59900
O2401       O  0.91091368  0.97706898  0.60360315    -0.80000
O2402       O  0.75402798  0.89834499  0.63748334    -0.78600
C2403       C  0.81810185  0.94299450  0.53069031     0.83900
C2404       C  0.83879021  0.84750662  0.57678496     0.83500
O2405       O  0.75499201  0.85957391  0.60207682    -0.77600
C2406       C  0.81847191  0.87782866  0.71127035     0.84400
O2407       O  0.80112018  0.91306990  0.54291069    -0.77700
C2408       C  0.92648013  0.96409981  0.61992780     0.84500
C2409       C  0.84030856  0.99425600  0.66569537     0.84800
O2410       O  0.85594533  0.99852654  0.63572959    -0.80100
C2411       C  0.86111149  0.55466970  0.74414296     0.04000
C2412       C  0.85573536  0.52651739  0.72363255    -0.12200
C2413       C  0.84585769  0.52363072  0.68724443     0.01500
C2414       C  0.84029599  0.54829358  0.67174029    -0.10700
C2415       C  0.84405426  0.57603144  0.69213669     0.04000
C2416       C  0.85448239  0.57900543  0.72829215    -0.10100
H2417       H  0.86061212  0.00761777  0.73536201     0.09600
H2418       H  0.83251745  0.54538125  0.64365868     0.07100
H2419       H  0.85837505  0.60083061  0.74373273     0.07000
C2420       C  0.67756895  0.65419863  0.68544934     0.04000
C2421       C  0.67058194  0.64495081  0.72203924    -0.12200
C2422       C  0.69354786  0.64042958  0.74315097     0.01500
C2423       C  0.72465582  0.64721231  0.72761947    -0.10700
C2424       C  0.73209031  0.65693759  0.69125969     0.04000
C2425       C  0.70792843  0.65981931  0.67025541    -0.10100
H2426       H  0.64674737  0.64010269  0.73356195     0.09600
H2427       H  0.74277764  0.64402589  0.74352119     0.07100
H2428       H  0.71286806  0.66717882  0.64204509     0.07000
O2429       O  0.53724955  0.68075277  0.56560794    -0.77600
C2430       C  0.63095905  0.76171630  0.61955016     0.83400
O2431       O  0.62202505  0.65795387  0.54685838    -0.78700
O2432       O  0.64597821  0.68094402  0.67591126    -0.80200
O2433       O  0.53749753  0.65666555  0.69462372    -0.80000
O2434       O  0.50333092  0.64540940  0.60812364    -0.78600
Zn2435     Zn  0.58347167  0.69773442  0.58458924     1.55700
O2436       O  0.59021380  0.70004804  0.69896976    -0.80000
Cd2437     Cd  0.53806400  0.64040576  0.64097012     1.58100
Cd2438     Cd  0.60341211  0.64021620  0.59977446     1.59600
O2439       O  0.52469285  0.58951708  0.63706517    -0.80000
O2440       O  0.58423998  0.66764005  0.61969995    -1.90500
Cd2441     Cd  0.61603472  0.69816791  0.65579607     1.59900
O2442       O  0.56503933  0.58941778  0.60240407    -0.80000
O2443       O  0.64380710  0.74667882  0.63660511    -0.78600
C2444       C  0.62370305  0.68322930  0.52973058     0.83900
C2445       C  0.50792510  0.66088441  0.57799177     0.83500
O2446       O  0.60292130  0.74525543  0.60295548    -0.77600
C2447       C  0.56077575  0.68193577  0.71200412     0.84400
O2448       O  0.61108879  0.70020394  0.54268029    -0.77700
C2449       C  0.53691001  0.57383957  0.61959259     0.84500
C2450       C  0.65393245  0.65990344  0.66378750     0.84800
O2451       O  0.64203840  0.64399115  0.63404130    -0.80100
C2452       C  0.97888750  0.65523798  0.55585835     0.04000
C2453       C  0.95356901  0.66053566  0.57034689    -0.12200
C2454       C  0.92590382  0.65502204  0.54901305     0.01500
C2455       C  0.92340881  0.64366207  0.51352662    -0.10700
C2456       C  0.94868052  0.63830222  0.99842683     0.04000
C2457       C  0.97676431  0.64480138  0.51963255    -0.10100
H2458       H  0.95530107  0.66874372  0.59816562     0.09600
H2459       H  0.90144031  0.63888369  0.99777822     0.07100
H2460       H  0.49622135  0.64043668  0.00858232     0.07000
C2461       C  0.98242563  0.96516818  0.86872036     0.04000
C2462       C  0.96478494  0.98310473  0.86889648    -0.12200
C2463       C  0.98229991  0.51872473  0.86894114     0.01500
C2464       C  0.51789038  0.53642917  0.86870001    -0.10700
C2465       C  0.53598099  0.51898718  0.86853697     0.04000
C2466       C  0.51802710  0.98334675  0.86852011    -0.10100
H2467       H  0.93737076  0.96931978  0.86918278     0.09600
H2468       H  0.53155515  0.56386875  0.86885261     0.07100
H2469       H  0.53180126  0.96972968  0.86854621     0.07000
O2470       O  0.74499537  0.64276719  0.89091134    -0.77600
C2471       C  0.65984312  0.65482933  0.91356173     0.83400
O2472       O  0.65508878  0.53644261  0.94412006    -0.78700
O2473       O  0.58938095  0.56633532  0.85228788    -0.80200
O2474       O  0.70268243  0.61443809  0.79314289    -0.80000
O2475       O  0.74621226  0.60348981  0.85668192    -0.78600
Zn2476     Zn  0.69660430  0.61596603  0.90725129     1.55700
O2477       O  0.65845074  0.62246952  0.79686265    -0.80000
Cd2478     Cd  0.69862674  0.58490105  0.83578941     1.59700
Cd2479     Cd  0.63960056  0.53847078  0.89059131     1.59600
O2480       O  0.68119902  0.53790933  0.81473315    -0.80000
O2481       O  0.66732446  0.58554560  0.87145277    -1.90500
Cd2482     Cd  0.64034754  0.60455690  0.84998280     1.59900
O2483       O  0.64479586  0.50432327  0.85679538    -0.80000
O2484       O  0.64422701  0.64363236  0.88354679    -0.78600
C2485       C  0.67952992  0.56021000  0.96191790     0.83900
C2486       C  0.76132582  0.63090360  0.87456256     0.83500
O2487       O  0.68009264  0.64581967  0.92569978    -0.77600
C2488       C  0.68437583  0.62544714  0.77994548     0.84400
O2489       O  0.69648143  0.58993856  0.94922450    -0.77700
C2490       C  0.66064472  0.50870806  0.82695856     0.84500
C2491       C  0.57352517  0.53794387  0.86902326     0.84800
O2492       O  0.58891397  0.52534037  0.88634176    -0.80100
C2493       C  0.65437620  0.67848043  0.93562733     0.04000
C2494       C  0.66013930  0.70912835  0.92095495    -0.12200
C2495       C  0.65658528  0.73282670  0.94219893     0.01500
C2496       C  0.64604136  0.72458560  0.97826834    -0.10700
C2497       C  0.63922358  0.69322225  0.99325270     0.04000
C2498       C  0.64443565  0.67079484  0.97195606    -0.10100
H2499       H  0.66797436  0.71458078  0.89292103     0.09600
H2500       H  0.64228409  0.74225597  0.99435998     0.07100
H2501       H  0.63942518  0.64674055  0.98307475     0.07000
C2502       C  0.55517029  0.69115374  0.74876938     0.04000
C2503       C  0.52659941  0.66954837  0.76947632    -0.12200
C2504       C  0.52390665  0.67780322  0.80555592     0.01500
C2505       C  0.54912122  0.70830137  0.82040875    -0.10700
C2506       C  0.57730910  0.73042078  0.79966849     0.04000
C2507       C  0.58044816  0.72164302  0.76433744    -0.10100
H2508       H  0.50709814  0.64586075  0.75811747     0.09600
H2509       H  0.54684964  0.71476389  0.84808649     0.07100
H2510       H  0.60276508  0.73889282  0.74902177     0.07000
O2511       O  0.85945653  0.60416695  0.89087880    -0.77600
C2512       C  0.84814497  0.50869126  0.91521804     0.83400
O2513       O  0.96663111  0.62170473  0.94432869    -0.78700
O2514       O  0.93515897  0.52507781  0.85312463    -0.80200
O2515       O  0.88887752  0.59083716  0.79294808    -0.80000
O2516       O  0.89811237  0.64467448  0.85597303    -0.78600
Zn2517     Zn  0.88728204  0.58406135  0.90775337     1.55700
O2518       O  0.87902403  0.53795045  0.79808724    -0.80000
Cd2519     Cd  0.91805814  0.61663570  0.83569388     1.59700
Cd2520     Cd  0.96414563  0.60373339  0.89092700     1.59600
O2521       O  0.96536978  0.64657515  0.81515295    -0.80000
O2522       O  0.91723474  0.58480066  0.87173759    -1.90500
Cd2523     Cd  0.89753690  0.53847110  0.85093508     1.59900
O2524       O  0.99850418  0.64270056  0.85695542    -0.80000
O2525       O  0.85860204  0.50396203  0.88490093    -0.78600
C2526       C  0.94321469  0.62323474  0.96182351     0.83900
C2527       C  0.87071358  0.63204086  0.87396930     0.83500
O2528       O  0.85793105  0.53809782  0.92746948    -0.77600
C2529       C  0.87676062  0.56104143  0.78058271     0.84400
O2530       O  0.91363767  0.61098377  0.94898603    -0.77700
C2531       C  0.99441916  0.65461615  0.82729625     0.84500
C2532       C  0.96357456  0.53749134  0.86966699     0.84800
O2533       O  0.97651504  0.56563084  0.88682239    -0.80100
C2534       C  0.52286081  0.84663372  0.93657902     0.04000
C2535       C  0.52540737  0.85658633  0.97288902    -0.12200
C2536       C  0.55347249  0.86232592  0.49370101     0.01500
C2537       C  0.57813452  0.85597094  0.97829871    -0.10700
C2538       C  0.57549341  0.84535778  0.94224299     0.04000
C2539       C  0.54779410  0.84126322  0.92148385    -0.10100
H2540       H  0.00633647  0.86135026  0.98430899     0.09600
H2541       H  0.59989314  0.86015573  0.99403807     0.07100
H2542       H  0.54515533  0.83342770  0.89344503     0.07000
O2543       O  0.63391936  0.76714209  0.81789917    -0.77600
C2544       C  0.73994356  0.84272069  0.81562518     0.83400
O2545       O  0.66063232  0.78796951  0.94334067    -0.78700
O2546       O  0.73633213  0.90391883  0.89112745    -0.80200
O2547       O  0.63420850  0.86964556  0.81603179    -0.80000
O2548       O  0.59582826  0.78306607  0.82798868    -0.78600
Zn2549     Zn  0.67244490  0.79798271  0.85128689     1.55700
O2550       O  0.68807101  0.90724612  0.82821114    -0.80000
Cd2551     Cd  0.62576573  0.83014192  0.85022579     1.59700
Cd2552     Cd  0.66758628  0.83527096  0.92490150     1.59600
O2553       O  0.59875738  0.83459145  0.89091243    -0.80000
O2554       O  0.66779411  0.83459169  0.87017307    -1.90500
Cd2555     Cd  0.70506598  0.87704298  0.85032086     1.59900
O2556       O  0.62694795  0.84209386  0.94246017    -0.80000
O2557       O  0.73589264  0.86838683  0.81626390    -0.78600
C2558       C  0.66213267  0.76479288  0.92518242     0.83900
C2559       C  0.60388851  0.76209943  0.81557875     0.83500
O2560       O  0.71846681  0.81446211  0.82945846    -0.77600
C2561       C  0.65945916  0.89966276  0.81491938     0.84400
O2562       O  0.66765364  0.76771067  0.89137945    -0.77700
C2563       C  0.60192750  0.84025036  0.92469307     0.84500
C2564       C  0.73837513  0.90092011  0.92501582     0.84800
O2565       O  0.71486994  0.87605368  0.94276427    -0.80100
O2566       O  0.89747639  0.75640834  0.89117808    -0.77600
C2567       C  0.99372628  0.84127681  0.91469480     0.83400
O2568       O  0.87947065  0.84566531  0.94359513    -0.78700
O2569       O  0.97641313  0.91174983  0.85288356    -0.80200
O2570       O  0.91163410  0.79875641  0.79338745    -0.80000
O2571       O  0.85708764  0.75475241  0.85639747    -0.78600
Zn2572     Zn  0.91819833  0.80457769  0.90777729     1.55700
O2573       O  0.96404235  0.84281769  0.79791205    -0.80000
Cd2574     Cd  0.88564393  0.80242136  0.83565150     1.59700
Cd2575     Cd  0.89771613  0.86126389  0.89028786     1.59600
O2576       O  0.85568474  0.81930028  0.81434667    -0.80000
O2577       O  0.91726257  0.83368975  0.87163136    -1.90500
Cd2578     Cd  0.96350243  0.86078101  0.85073888     1.59900
O2579       O  0.85851603  0.85579839  0.85620756    -0.80000
O2580       O  0.99827604  0.85673595  0.88455422    -0.78600
C2581       C  0.87844040  0.82111847  0.96150053     0.83900
C2582       C  0.86950402  0.73988427  0.87445986     0.83500
O2583       O  0.96439502  0.82124783  0.92694749    -0.77600
C2584       C  0.94122520  0.81698951  0.78072761     0.84400
O2585       O  0.89140788  0.80426315  0.94915681    -0.77700
C2586       C  0.84695761  0.83977634  0.82649239     0.84500
C2587       C  0.96371330  0.92756744  0.86923963     0.84800
O2588       O  0.93544644  0.91208966  0.88614735    -0.80100
C2589       C  0.82333682  0.84536982  0.80475027     0.04000
C2590       C  0.83116192  0.85582849  0.76844283    -0.12200
C2591       C  0.80938381  0.86258098  0.74787882     0.01500
C2592       C  0.77910239  0.85744013  0.76373534    -0.10700
C2593       C  0.77078857  0.84617430  0.79931656     0.04000
C2594       C  0.79306200  0.84034113  0.81996942    -0.10100
H2595       H  0.85476781  0.86006234  0.75687566     0.09600
H2596       H  0.76179795  0.86248555  0.74857472     0.07100
H2597       H  0.78704436  0.83227971  0.84789745     0.07000
C2598       C  0.82412195  0.97969197  0.93716591     0.04000
C2599       C  0.79376572  0.95489778  0.92197492    -0.12200
C2600       C  0.76982223  0.92734016  0.94272236     0.01500
C2601       C  0.77743396  0.92471284  0.97889120    -0.10700
C2602       C  0.80853655  0.94917103  0.49438015     0.04000
C2603       C  0.83125666  0.97714242  0.97357855    -0.10100
H2604       H  0.78880396  0.95752812  0.89384938     0.09600
H2605       H  0.75956740  0.90301946  0.99460789     0.07100
H2606       H  0.85516916  0.49606897  0.98506670     0.07000
C2607       C  0.63819844  0.94878201  0.74791423     0.04000
C2608       C  0.64378947  0.92378000  0.76343023    -0.12200
C2609       C  0.65506976  0.92663145  0.79897743     0.01500
C2610       C  0.66038881  0.95441282  0.81996034    -0.10700
C2611       C  0.65487951  0.97947333  0.80511084     0.04000
C2612       C  0.64442425  0.97699023  0.76883340    -0.10100
H2613       H  0.63918380  0.90167892  0.74800880     0.09600
H2614       H  0.66860654  0.95643250  0.84781452     0.07100
H2615       H  0.63994267  0.49629250  0.75750741     0.07000
C2616       C  0.85178228  0.65006070  0.87524248     0.04000
C2617       C  0.81634665  0.63208407  0.87553198    -0.12200
C2618       C  0.79834147  0.64949140  0.87578590     0.01500
C2619       C  0.81590420  0.68490117  0.87596231    -0.10700
C2620       C  0.85128179  0.70291895  0.87568210     0.04000
C2621       C  0.86915754  0.68547048  0.87541579    -0.10100
H2622       H  0.80282697  0.60464331  0.87511934     0.09600
H2623       H  0.80205435  0.69845084  0.87582309     0.07100
H2624       H  0.89657880  0.69944782  0.87493371     0.07000
loop_ 
_geom_bond_atom_site_label_1 
_geom_bond_atom_site_label_2 
_geom_bond_distance 
_geom_bond_site_symmetry_2 
_ccdc_geom_bond_type 
C1            C6   1.408       .  A
C1          C658   1.408       .  A
C1          C112   1.485       .  S
C2          C657   1.408   1_545  A
C2         C1315   1.407       .  A
C2            H7   1.084       .  S
C3            C4   1.406       .  A
C3         C1314   1.407   1_455  A
C3          C153   1.484       .  S
C4          C661   1.407   1_545  A
C4            H8   1.084       .  S
C5          C660   1.407       .  A
C5         C1318   1.407   1_455  A
C5           C48   1.483       .  S
C6         C1317   1.407       .  A
C6            H9   1.084       .  S
C10          C11   1.401       .  A
C10          C15   1.399       .  A
C10          C29   1.463       .  S
C11          C12   1.401       .  A
C11          H16   1.084       .  S
C12          C13   1.399       .  A
C12         C134   1.464       .  S
C13          C14   1.398       .  A
C13          H17   1.084       .  S
C14          C15   1.399       .  A
C14          C93   1.461       .  S
C15          H18   1.084       .  S
C19          C20   1.402       .  A
C19          C24   1.409       .  A
C19         C108   1.469       .  S
C20          C21   1.402       .  A
C20          H25   1.084       .  S
C21          C22   1.395       .  A
C21          C85   1.470       .  S
C22         C351   1.410   1_554  A
C22         H354   1.084   1_554  S
C23         C350   1.410       .  A
C23         C352   1.404       .  A
C23         C285   1.483       .  S
C24         C351   1.404   1_554  A
C24         H355   1.084       .  S
H26         C350   1.084       .  S
H27         C352   1.084       .  S
O28          C44   1.269       .  A
O28         Zn34   1.985       .  S
C29          O45   1.273       .  A
C29          O42   1.271       .  A
O30          C43   1.283       .  A
O30         Cd37   2.121       .  S
O31          C49   1.267       .  A
O31         Cd40   2.031       .  S
O32          C46   1.283       .  A
O32         Cd36   2.124       .  S
O33          C44   1.278       .  A
O33         Cd36   2.096       .  S
Zn34         O45   2.007       .  S
Zn34         O47   1.963       .  S
Zn34         O39   1.904       .  S
O35          C46   1.269       .  A
O35         Cd40   2.011       .  S
Cd36         O38   2.089       .  S
Cd36         O39   1.994       .  S
Cd37         O41   2.092       .  S
Cd37         O50   2.104       .  S
Cd37         O39   1.993       .  S
O38          C48   1.282       .  A
O39         Cd40   1.949       .  S
Cd40         O42   2.048       .  S
O41          C48   1.282       .  A
C43         C240   1.483   1_554  S
C43          O47   1.268       .  A
C44         C709   1.467       .  S
C46         C311   1.483       .  S
C49        C1372   1.468   1_455  S
C49          O50   1.279       .  A
C51         C380   1.403       .  A
C51         C384   1.411       .  A
C51         C189   1.482       .  S
C52          C53   1.408       .  A
C52         C379   1.403   1_554  A
C52        H1041   1.084       .  S
C53          C54   1.401       .  A
C53         C700   1.467   1_545  S
C54          C55   1.401       .  A
C54          H58   1.084       .  S
C55          C56   1.395       .  A
C55          C70   1.469       .  S
C56         C379   1.411   1_554  A
C56         H387   1.084   1_554  S
H57        C1036   1.084       .  S
H59         C384   1.084       .  S
C60          C61   1.395       .  A
C60          C65   1.404       .  A
C60        C1361   1.468       .  S
C61          C62   1.408       .  A
C61          H66   1.084       .  S
C62          C63   1.402       .  A
C62          C89   1.486       .  S
C63          C64   1.416       .  A
C63          H67   1.083       .  S
C64          C65   1.404       .  A
C64         C288   1.483       .  S
C65        H1380   1.084       .  S
H68        C1377   1.084       .  S
O69          C85   1.273       .  A
O69         Zn75   2.018       .  S
C70          O86   1.276       .  A
C70          O83   1.272       .  A
O71          C84   1.283       .  A
O71         Cd78   2.121       .  S
O72          C90   1.269       .  A
O72         Cd81   2.022       .  S
O73          C87   1.272       .  A
O73         Cd77   2.062       .  S
O74          C85   1.275       .  A
O74         Cd77   2.073       .  S
Zn75         O86   2.032       .  S
Zn75         O88   1.966       .  S
Zn75         O80   1.921       .  S
O76          C87   1.276       .  A
O76         Cd81   2.076       .  S
Cd77         O79   2.020       .  S
Cd77         O80   1.972       .  S
Cd78         O82   2.124       .  S
Cd78         O91   2.125       .  S
Cd78         O80   2.023       .  S
O79          C89   1.269       .  A
O80         Cd81   1.973       .  S
Cd81         O83   2.058       .  S
O82          C89   1.283       .  A
C84         C128   1.487       .  S
C84          O88   1.269       .  A
C87         C158   1.468       .  S
C90         C119   1.488       .  S
C90          O91   1.283       .  A
O92         C108   1.269       .  A
O92         Zn98   1.988       .  S
C93         O109   1.272       .  A
C93         O106   1.271       .  A
O94         C107   1.283       .  A
O94        Cd101   2.118       .  S
O95         C113   1.268       .  A
O95        Cd104   2.035       .  S
O96         C110   1.283       .  A
O96        Cd100   2.121       .  S
O97         C108   1.278       .  A
O97        Cd100   2.098       .  S
Zn98        O109   2.003       .  S
Zn98        O111   1.961       .  S
Zn98        O103   1.905       .  S
O99         C110   1.269       .  A
O99        Cd104   2.011       .  S
Cd100       O102   2.092       .  S
Cd100       O103   1.996       .  S
Cd101       O105   2.091       .  S
Cd101       O114   2.104       .  S
Cd101       O103   1.994       .  S
O102        C112   1.282       .  A
O103       Cd104   1.953       .  S
Cd104       O106   2.048       .  S
O105        C112   1.282       .  A
C107        C306   1.482   1_554  S
C107        O111   1.268       .  A
C110        C295   1.482       .  S
C113        C773   1.469       .  S
C113        O114   1.279       .  A
C115        C116   1.404       .  A
C115        C120   1.416       .  A
C115        C233   1.484       .  S
C116        C117   1.404       .  A
C116        H777   1.084       .  S
C117        C118   1.395       .  A
C117        C769   1.469   1_545  S
C118        C119   1.409       .  A
C118        H122   1.084       .  S
C119        C120   1.403       .  A
C120        H123   1.083       .  S
H121        C772   1.084       .  S
C124        C125   1.405       .  A
C124        C129   1.396       .  A
C124        C154   1.469       .  S
C125        C126   1.404       .  A
C125        H130   1.084       .  S
C126        C127   1.416       .  A
C126        C192   1.485       .  S
C127        C128   1.403       .  A
C127        H131   1.083       .  S
C128        C129   1.409       .  A
C129        H132   1.084       .  S
O133        C149   1.268       .  A
O133       Zn139   1.978       .  S
C134        O150   1.272       .  A
C134        O147   1.272       .  A
O135        C148   1.284       .  A
O135       Cd142   2.125       .  S
O136        C154   1.267       .  A
O136       Cd145   2.030       .  S
O137        C151   1.283       .  A
O137       Cd141   2.123       .  S
O138        C149   1.278       .  A
O138       Cd141   2.100       .  S
Zn139       O150   2.006       .  S
Zn139       O152   1.965       .  S
Zn139       O144   1.903       .  S
O140        C151   1.269       .  A
O140       Cd145   2.012       .  S
Cd141       O143   2.090       .  S
Cd141       O144   1.996       .  S
Cd142       O146   2.094       .  S
Cd142       O155   2.109       .  S
Cd142       O144   1.994       .  S
O143        C153   1.281       .  A
O144       Cd145   1.951       .  S
Cd145       O147   2.049       .  S
O146        C153   1.282       .  A
C148        C529   1.485   1_554  S
C148        O152   1.269       .  A
C149       C1468   1.468   1_455  S
C151        C206   1.483       .  S
C154        O155   1.280       .  A
C156        C157   1.402       .  A
C156        C161   1.409       .  A
C156       C1461   1.468       .  S
C157        C158   1.402       .  A
C157        H162   1.084       .  S
C158        C159   1.394       .  A
C159        C488   1.410   1_554  A
C159        H491   1.084   1_554  S
C160        C487   1.410       .  A
C160        C489   1.403       .  A
C160        C230   1.482       .  S
C161        C488   1.403   1_554  A
C161       H1804   1.084       .  S
H163        C487   1.084       .  S
H164       C1801   1.084       .  S
C165        C166   1.408       .  A
C165       C1482   1.408       .  A
C165        C291   1.485       .  S
C166        C823   1.407       .  A
C166        H171   1.084       .  S
C167        C822   1.407   1_545  A
C167       C1480   1.407       .  A
C167        C236   1.484       .  S
C168        C169   1.406       .  A
C168       C1479   1.407   1_455  A
C168        H172   1.084       .  S
C169        C826   1.408   1_545  A
C169        C195   1.485       .  S
C170       C1477   1.408   1_455  A
C170        C825   1.408       .  A
C170        H173   1.084       .  S
O174        C190   1.273       .  A
O174       Zn180   2.009       .  S
C175        C197   1.471       .  S
C175        O191   1.268       .  A
C175        O188   1.279       .  A
O176        C189   1.282       .  A
O176       Cd183   2.119       .  S
O177        C195   1.283       .  A
O177       Cd186   2.098       .  S
O178        C192   1.270       .  A
O178       Cd182   2.021       .  S
O179        C190   1.271       .  A
O179       Cd182   2.048       .  S
Zn180       O191   1.981       .  S
Zn180       O193   1.952       .  S
Zn180       O185   1.900       .  S
O181        C192   1.285       .  A
O181       Cd186   2.128       .  S
Cd182       O184   2.033       .  S
Cd182       O185   1.956       .  S
Cd183       O187   2.103       .  S
Cd183       O196   2.087       .  S
Cd183       O185   1.998       .  S
O184        C194   1.268       .  A
O185       Cd186   1.994       .  S
Cd186       O188   2.107       .  S
O187        C194   1.279       .  A
C189        O193   1.268       .  A
C190        C322   1.464       .  S
C194        C971   1.467   1_545  S
C195        O196   1.281       .  A
C197        C198   1.397       .  A
C197        C202   1.405       .  A
C198        C199   1.411       .  A
C198        H203   1.084       .  S
C199        C200   1.403       .  A
C199        C262   1.489       .  S
C200        C201   1.416       .  A
C200        H204   1.083       .  S
C201        C202   1.404       .  A
C201        C476   1.485       .  S
C202        H205   1.084       .  S
C206        C207   1.404       .  A
C206        C211   1.411       .  A
C207        C208   1.408       .  A
C207        H212   1.084       .  S
C208        C209   1.400       .  A
C208       C1547   1.467   1_455  S
C209        C210   1.401       .  A
C209        H213   1.084       .  S
C210        C211   1.395       .  A
C210        C263   1.467       .  S
C211        H214   1.084       .  S
O215        C231   1.272       .  A
O215       Zn221   2.005       .  S
C216        C958   1.469   1_545  S
C216        O232   1.267       .  A
C216        O229   1.279       .  A
O217        C230   1.282       .  A
O217       Cd224   2.119       .  S
O218        C236   1.282       .  A
O218       Cd227   2.095       .  S
O219        C233   1.269       .  A
O219       Cd223   2.022       .  S
O220        C231   1.272       .  A
O220       Cd223   2.050       .  S
Zn221       O232   1.977       .  S
Zn221       O234   1.950       .  S
Zn221       O226   1.897       .  S
O222        C233   1.284       .  A
O222       Cd227   2.125       .  S
Cd223       O225   2.038       .  S
Cd223       O226   1.958       .  S
Cd224       O228   2.098       .  S
Cd224       O237   2.087       .  S
Cd224       O226   1.997       .  S
O225        C235   1.269       .  A
O226       Cd227   1.992       .  S
Cd227       O229   2.100       .  S
O228        C235   1.278       .  A
C230        O234   1.268       .  A
C231        C320   1.463       .  S
C235       C1520   1.467       .  S
C236        O237   1.281       .  A
C238        C239   1.403       .  A
C238        C243   1.396       .  A
C238       C1583   1.470   1_455  S
C239        C568   1.403       .  A
C239       H1556   1.084       .  S
C240        C567   1.403       .  A
C240        C569   1.416       .  A
C241        C242   1.403       .  A
C241        C568   1.416       .  A
C241        H245   1.083       .  S
C242        C243   1.410       .  A
C242        C267   1.489       .  S
C243        H246   1.084       .  S
H244       C1551   1.084       .  S
O247        C263   1.275       .  A
O247       Zn253   2.030       .  S
C248        C297   1.467       .  S
C248        O264   1.272       .  A
C248        O261   1.275       .  A
O249        C262   1.284       .  A
O249       Cd256   2.131       .  S
O250        C268   1.269       .  A
O250       Cd259   2.017       .  S
O251        C265   1.275       .  A
O251       Cd255   2.073       .  S
O252        C263   1.271       .  A
O252       Cd255   2.054       .  S
Zn253       O264   2.013       .  S
Zn253       O266   1.962       .  S
Zn253       O258   1.919       .  S
O254        C265   1.272       .  A
O254       Cd259   2.060       .  S
Cd255       O257   2.019       .  S
Cd255       O258   1.970       .  S
Cd256       O260   2.132       .  S
Cd256       O269   2.131       .  S
Cd256       O258   2.024       .  S
O257        C267   1.269       .  A
O258       Cd259   1.971       .  S
Cd259       O261   2.070       .  S
O260        C267   1.284       .  A
C262        O266   1.269       .  A
C265        C313   1.466       .  S
C268        C304   1.487       .  S
C268        O269   1.284       .  A
O270        C286   1.272       .  A
O270       Zn276   2.006       .  S
C271       C1550   1.470       .  S
C271        O287   1.268       .  A
C271        O284   1.279       .  A
O272        C285   1.282       .  A
O272       Cd279   2.119       .  S
O273        C291   1.282       .  A
O273       Cd282   2.096       .  S
O274        C288   1.269       .  A
O274       Cd278   2.020       .  S
O275        C286   1.271       .  A
O275       Cd278   2.044       .  S
Zn276       O287   1.982       .  S
Zn276       O289   1.955       .  S
Zn276       O281   1.900       .  S
O277        C288   1.284       .  A
O277       Cd282   2.123       .  S
Cd278       O280   2.036       .  S
Cd278       O281   1.957       .  S
Cd279       O283   2.100       .  S
Cd279       O292   2.090       .  S
Cd279       O281   1.997       .  S
O280        C290   1.268       .  A
O281       Cd282   1.992       .  S
Cd282       O284   2.102       .  S
O283        C290   1.278       .  A
C285        O289   1.268       .  A
C286        C324   1.461       .  S
C290        C293   1.467       .  S
C291        O292   1.282       .  A
C293        C294   1.409       .  A
C293        C298   1.402       .  A
C294        C295   1.404       .  A
C294        H299   1.084       .  S
C295        C296   1.410       .  A
C296        C297   1.394       .  A
C296        H300   1.084       .  S
C297        C298   1.401       .  A
C298        H301   1.084       .  S
C302        C303   1.395       .  A
C302        C307   1.404       .  A
C302        C872   1.469       .  S
C303        C304   1.410       .  A
C303        H308   1.084       .  S
C304        C305   1.402       .  A
C305        C634   1.416       .  A
C305        H309   1.083       .  S
C306        C633   1.416       .  A
C306        C635   1.403       .  A
C307        C634   1.403       .  A
C307        H966   1.084       .  S
H310        C963   1.084       .  S
C311        C312   1.410       .  A
C311        C316   1.404       .  A
C312        C313   1.394       .  A
C312        H317   1.084       .  S
C313        C314   1.400       .  A
C314        C315   1.401       .  A
C314        H318   1.084       .  S
C315        C316   1.409       .  A
C315        C850   1.467       .  S
C316        H975   1.084       .  S
H319        C972   1.084       .  S
C320        C321   1.401       .  A
C320        C325   1.399       .  A
C321        C322   1.401       .  A
C321        H326   1.084       .  S
C322        C323   1.399       .  A
C323        C324   1.399       .  A
C323        H327   1.084       .  S
C324        C325   1.398       .  A
C325        H328   1.084       .  S
C329        C986   1.408       .  A
C329        C334   1.408       .  A
C329        C440   1.485       .  S
C330        C985   1.408   1_545  A
C330       C1643   1.407       .  A
C330        H335   1.084       .  S
C331       C1642   1.407   1_455  A
C331        C332   1.406       .  A
C331        C481   1.484       .  S
C332        C989   1.407   1_545  A
C332        H336   1.084       .  S
C333        C988   1.407       .  A
C333       C1646   1.407   1_455  A
C333        C376   1.483       .  S
C334       C1645   1.407       .  A
C334        H337   1.084       .  S
C338        C339   1.401       .  A
C338        C343   1.399       .  A
C338        C357   1.463       .  S
C339        C340   1.401       .  A
C339        H344   1.084       .  S
C340        C341   1.399       .  A
C340        C462   1.464       .  S
C341        C342   1.398       .  A
C341        H345   1.084       .  S
C342        C343   1.399       .  A
C342        C421   1.461       .  S
C343        H346   1.084       .  S
C347        C348   1.402       .  A
C347        C352   1.409       .  A
C347        C436   1.469       .  S
C348        C349   1.402       .  A
C348        H353   1.084       .  S
C349        C350   1.395       .  A
C349        C413   1.470       .  S
C351        C613   1.483       .  S
O356        C372   1.269       .  A
O356       Zn362   1.985       .  S
C357        O373   1.273       .  A
C357        O370   1.271       .  A
O358        C371   1.283       .  A
O358       Cd365   2.121       .  S
O359        C377   1.267       .  A
O359       Cd368   2.031       .  S
O360        C374   1.283       .  A
O360       Cd364   2.124       .  S
O361        C372   1.278       .  A
O361       Cd364   2.096       .  S
Zn362       O373   2.007       .  S
Zn362       O375   1.963       .  S
Zn362       O367   1.904       .  S
O363        C374   1.269       .  A
O363       Cd368   2.011       .  S
Cd364       O366   2.089       .  S
Cd364       O367   1.994       .  S
Cd365       O369   2.092       .  S
Cd365       O378   2.104       .  S
Cd365       O367   1.993       .  S
O366        C376   1.282       .  A
O367       Cd368   1.949       .  S
Cd368       O370   2.048       .  S
O369        C376   1.282       .  A
C371        C568   1.483       .  S
C371        O375   1.268       .  A
C372       C1037   1.467       .  S
C374        C639   1.483       .  S
C377       C1700   1.468   1_455  S
C377        O378   1.279       .  A
C379        C517   1.482       .  S
C380        C381   1.408       .  A
C380        H713   1.084       .  S
C381        C382   1.401       .  A
C381       C1028   1.467   1_545  S
C382        C383   1.401       .  A
C382        H386   1.084       .  S
C383        C384   1.395       .  A
C383        C398   1.469       .  S
H385        C708   1.084       .  S
C388        C389   1.395       .  A
C388        C393   1.404       .  A
C388       C1689   1.468       .  S
C389        C390   1.408       .  A
C389        H394   1.084       .  S
C390        C391   1.402       .  A
C390        C417   1.486       .  S
C391        C392   1.416       .  A
C391        H395   1.083       .  S
C392        C393   1.404       .  A
C392        C616   1.483       .  S
C393       H1708   1.084       .  S
H396       C1705   1.084       .  S
O397        C413   1.273       .  A
O397       Zn403   2.018       .  S
C398        O414   1.276       .  A
C398        O411   1.272       .  A
O399        C412   1.283       .  A
O399       Cd406   2.121       .  S
O400        C418   1.269       .  A
O400       Cd409   2.022       .  S
O401        C415   1.272       .  A
O401       Cd405   2.062       .  S
O402        C413   1.275       .  A
O402       Cd405   2.073       .  S
Zn403       O414   2.032       .  S
Zn403       O416   1.966       .  S
Zn403       O408   1.921       .  S
O404        C415   1.276       .  A
O404       Cd409   2.076       .  S
Cd405       O407   2.020       .  S
Cd405       O408   1.972       .  S
Cd406       O410   2.124       .  S
Cd406       O419   2.125       .  S
Cd406       O408   2.023       .  S
O407        C417   1.269       .  A
O408       Cd409   1.973       .  S
Cd409       O411   2.058       .  S
O410        C417   1.283       .  A
C412        C456   1.487       .  S
C412        O416   1.269       .  A
C415        C486   1.468       .  S
C418        C447   1.488       .  S
C418        O419   1.283       .  A
O420        C436   1.269       .  A
O420       Zn426   1.988       .  S
C421        O437   1.272       .  A
C421        O434   1.271       .  A
O422        C435   1.283       .  A
O422       Cd429   2.118       .  S
O423        C441   1.268       .  A
O423       Cd432   2.035       .  S
O424        C438   1.283       .  A
O424       Cd428   2.121       .  S
O425        C436   1.278       .  A
O425       Cd428   2.098       .  S
Zn426       O437   2.003       .  S
Zn426       O439   1.961       .  S
Zn426       O431   1.905       .  S
O427        C438   1.269       .  A
O427       Cd432   2.011       .  S
Cd428       O430   2.092       .  S
Cd428       O431   1.996       .  S
Cd429       O433   2.091       .  S
Cd429       O442   2.104       .  S
Cd429       O431   1.994       .  S
O430        C440   1.282       .  A
O431       Cd432   1.953       .  S
Cd432       O434   2.048       .  S
O433        C440   1.282       .  A
C435        C634   1.482       .  S
C435        O439   1.268       .  A
C438        C623   1.482       .  S
C441       C1101   1.469       .  S
C441        O442   1.279       .  A
C443        C444   1.404       .  A
C443        C448   1.416       .  A
C443        C561   1.484       .  S
C444        C445   1.404       .  A
C444       H1105   1.084       .  S
C445        C446   1.395       .  A
C445       C1097   1.469   1_545  S
C446        C447   1.409       .  A
C446        H450   1.084       .  S
C447        C448   1.403       .  A
C448        H451   1.083       .  S
H449       C1100   1.084       .  S
C452        C453   1.405       .  A
C452        C457   1.396       .  A
C452        C482   1.469       .  S
C453        C454   1.404       .  A
C453        H458   1.084       .  S
C454        C455   1.416       .  A
C454        C520   1.485       .  S
C455        C456   1.403       .  A
C455        H459   1.083       .  S
C456        C457   1.409       .  A
C457        H460   1.084       .  S
O461        C477   1.268       .  A
O461       Zn467   1.978       .  S
C462        O478   1.272       .  A
C462        O475   1.272       .  A
O463        C476   1.284       .  A
O463       Cd470   2.124       .  S
O464        C482   1.267       .  A
O464       Cd473   2.030       .  S
O465        C479   1.283       .  A
O465       Cd469   2.123       .  S
O466        C477   1.278       .  A
O466       Cd469   2.100       .  S
Zn467       O478   2.006       .  S
Zn467       O480   1.965       .  S
Zn467       O472   1.903       .  S
O468        C479   1.269       .  A
O468       Cd473   2.012       .  S
Cd469       O471   2.090       .  S
Cd469       O472   1.996       .  S
Cd470       O474   2.094       .  S
Cd470       O483   2.109       .  S
Cd470       O472   1.994       .  S
O471        C481   1.281       .  A
O472       Cd473   1.951       .  S
Cd473       O475   2.049       .  S
O474        C481   1.282       .  A
C476        O480   1.269       .  A
C477       C1796   1.468   1_455  S
C479        C534   1.483       .  S
C482        O483   1.280       .  A
C484        C485   1.402       .  A
C484        C489   1.409       .  A
C484       C1789   1.468       .  S
C485        C486   1.402       .  A
C485        H490   1.084       .  S
C486        C487   1.394       .  A
C488        C558   1.482       .  S
C489       H1476   1.084       .  S
H492       C1473   1.084       .  S
C493        C494   1.408       .  A
C493       C1810   1.408       .  A
C493        C619   1.485       .  S
C494       C1151   1.407       .  A
C494        H499   1.084       .  S
C495       C1150   1.407   1_545  A
C495       C1808   1.407       .  A
C495        C564   1.484       .  S
C496       C1807   1.407   1_455  A
C496        C497   1.406       .  A
C496        H500   1.084       .  S
C497       C1154   1.408   1_545  A
C497        C523   1.485       .  S
C498       C1805   1.408   1_455  A
C498       C1153   1.408       .  A
C498        H501   1.084       .  S
O502        C518   1.273       .  A
O502       Zn508   2.009       .  S
C503        C525   1.471       .  S
C503        O519   1.268       .  A
C503        O516   1.279       .  A
O504        C517   1.282       .  A
O504       Cd511   2.119       .  S
O505        C523   1.283       .  A
O505       Cd514   2.098       .  S
O506        C520   1.270       .  A
O506       Cd510   2.021       .  S
O507        C518   1.271       .  A
O507       Cd510   2.048       .  S
Zn508       O519   1.981       .  S
Zn508       O521   1.952       .  S
Zn508       O513   1.900       .  S
O509        C520   1.285       .  A
O509       Cd514   2.128       .  S
Cd510       O512   2.033       .  S
Cd510       O513   1.956       .  S
Cd511       O515   2.103       .  S
Cd511       O524   2.087       .  S
Cd511       O513   1.998       .  S
O512        C522   1.268       .  A
O513       Cd514   1.994       .  S
Cd514       O516   2.107       .  S
O515        C522   1.279       .  A
C517        O521   1.268       .  A
C518        C650   1.464       .  S
C522       C1299   1.467   1_545  S
C523        O524   1.281       .  A
C525        C526   1.397       .  A
C525        C530   1.405       .  A
C526        C527   1.411       .  A
C526        H531   1.084       .  S
C527        C528   1.403       .  A
C527        C590   1.489       .  S
C528        C529   1.416       .  A
C528        H532   1.083       .  S
C529        C530   1.404       .  A
C530        H533   1.084       .  S
C534        C535   1.404       .  A
C534        C539   1.411       .  A
C535        C536   1.408       .  A
C535        H540   1.084       .  S
C536        C537   1.400       .  A
C536       C1875   1.467   1_455  S
C537        C538   1.401       .  A
C537        H541   1.084       .  S
C538        C539   1.395       .  A
C538        C591   1.467       .  S
C539        H542   1.084       .  S
O543        C559   1.272       .  A
O543       Zn549   2.005       .  S
C544       C1286   1.469   1_545  S
C544        O560   1.267       .  A
C544        O557   1.279       .  A
O545        C558   1.282       .  A
O545       Cd552   2.119       .  S
O546        C564   1.282       .  A
O546       Cd555   2.095       .  S
O547        C561   1.269       .  A
O547       Cd551   2.022       .  S
O548        C559   1.272       .  A
O548       Cd551   2.050       .  S
Zn549       O560   1.977       .  S
Zn549       O562   1.950       .  S
Zn549       O554   1.897       .  S
O550        C561   1.284       .  A
O550       Cd555   2.125       .  S
Cd551       O553   2.038       .  S
Cd551       O554   1.958       .  S
Cd552       O556   2.098       .  S
Cd552       O565   2.087       .  S
Cd552       O554   1.997       .  S
O553        C563   1.269       .  A
O554       Cd555   1.992       .  S
Cd555       O557   2.100       .  S
O556        C563   1.278       .  A
C558        O562   1.268       .  A
C559        C648   1.463       .  S
C563       C1848   1.467       .  S
C564        O565   1.281       .  A
C566        C567   1.403       .  A
C566        C571   1.396       .  A
C566       C1911   1.470   1_455  S
C567       H1884   1.084       .  S
C569        C570   1.403       .  A
C569        H573   1.083       .  S
C570        C571   1.410       .  A
C570        C595   1.489       .  S
C571        H574   1.084       .  S
H572       C1879   1.084       .  S
O575        C591   1.275       .  A
O575       Zn581   2.030       .  S
C576        C625   1.467       .  S
C576        O592   1.272       .  A
C576        O589   1.275       .  A
O577        C590   1.284       .  A
O577       Cd584   2.131       .  S
O578        C596   1.269       .  A
O578       Cd587   2.017       .  S
O579        C593   1.275       .  A
O579       Cd583   2.073       .  S
O580        C591   1.271       .  A
O580       Cd583   2.054       .  S
Zn581       O592   2.013       .  S
Zn581       O594   1.962       .  S
Zn581       O586   1.919       .  S
O582        C593   1.272       .  A
O582       Cd587   2.060       .  S
Cd583       O585   2.019       .  S
Cd583       O586   1.970       .  S
Cd584       O588   2.132       .  S
Cd584       O597   2.131       .  S
Cd584       O586   2.024       .  S
O585        C595   1.269       .  A
O586       Cd587   1.971       .  S
Cd587       O589   2.070       .  S
O588        C595   1.284       .  A
C590        O594   1.269       .  A
C593        C641   1.466       .  S
C596        C632   1.487       .  S
C596        O597   1.284       .  A
O598        C614   1.272       .  A
O598       Zn604   2.006       .  S
C599       C1878   1.470       .  S
C599        O615   1.268       .  A
C599        O612   1.279       .  A
O600        C613   1.282       .  A
O600       Cd607   2.119       .  S
O601        C619   1.282       .  A
O601       Cd610   2.096       .  S
O602        C616   1.269       .  A
O602       Cd606   2.020       .  S
O603        C614   1.271       .  A
O603       Cd606   2.044       .  S
Zn604       O615   1.982       .  S
Zn604       O617   1.955       .  S
Zn604       O609   1.900       .  S
O605        C616   1.284       .  A
O605       Cd610   2.123       .  S
Cd606       O608   2.036       .  S
Cd606       O609   1.957       .  S
Cd607       O611   2.100       .  S
Cd607       O620   2.090       .  S
Cd607       O609   1.997       .  S
O608        C618   1.268       .  A
O609       Cd610   1.992       .  S
Cd610       O612   2.102       .  S
O611        C618   1.278       .  A
C613        O617   1.268       .  A
C614        C652   1.461       .  S
C618        C621   1.467       .  S
C619        O620   1.282       .  A
C621        C622   1.409       .  A
C621        C626   1.402       .  A
C622        C623   1.404       .  A
C622        H627   1.084       .  S
C623        C624   1.410       .  A
C624        C625   1.394       .  A
C624        H628   1.084       .  S
C625        C626   1.401       .  A
C626        H629   1.084       .  S
C630        C631   1.395       .  A
C630        C635   1.404       .  A
C630       C1200   1.469       .  S
C631        C632   1.410       .  A
C631        H636   1.084       .  S
C632        C633   1.402       .  A
C633        H637   1.083       .  S
C635       H1294   1.084       .  S
H638       C1291   1.084       .  S
C639        C640   1.410       .  A
C639        C644   1.404       .  A
C640        C641   1.394       .  A
C640        H645   1.084       .  S
C641        C642   1.400       .  A
C642        C643   1.401       .  A
C642        H646   1.084       .  S
C643        C644   1.409       .  A
C643       C1178   1.467       .  S
C644       H1303   1.084       .  S
H647       C1300   1.084       .  S
C648        C649   1.401       .  A
C648        C653   1.399       .  A
C649        C650   1.401       .  A
C649        H654   1.084       .  S
C650        C651   1.399       .  A
C651        C652   1.399       .  A
C651        H655   1.084       .  S
C652        C653   1.398       .  A
C653        H656   1.084       .  S
C657        C662   1.408       .  A
C657        C768   1.485       .  S
C658       C1971   1.407       .  A
C658        H663   1.084       .  S
C659       C1970   1.407   1_455  A
C659        C660   1.406       .  A
C659        C809   1.484       .  S
C660        H664   1.084       .  S
C661       C1974   1.407   1_455  A
C661        C704   1.483       .  S
C662       C1973   1.407       .  A
C662        H665   1.084       .  S
C666        C667   1.401       .  A
C666        C671   1.399       .  A
C666        C685   1.463       .  S
C667        C668   1.401       .  A
C667        H672   1.084       .  S
C668        C669   1.399       .  A
C668        C790   1.464       .  S
C669        C670   1.398       .  A
C669        H673   1.084       .  S
C670        C671   1.399       .  A
C670        C749   1.461       .  S
C671        H674   1.084       .  S
C675        C676   1.402       .  A
C675        C680   1.409       .  A
C675        C764   1.469       .  S
C676        C677   1.402       .  A
C676        H681   1.084       .  S
C677        C678   1.395       .  A
C677        C741   1.470       .  S
C678       C1007   1.410   1_554  A
C678       H1010   1.084   1_554  S
C679       C1006   1.410       .  A
C679       C1008   1.404       .  A
C679        C941   1.483       .  S
C680       C1007   1.404   1_554  A
C680       H1011   1.084       .  S
H682       C1006   1.084       .  S
H683       C1008   1.084       .  S
O684        C700   1.269       .  A
O684       Zn690   1.985       .  S
C685        O701   1.273       .  A
C685        O698   1.271       .  A
O686        C699   1.283       .  A
O686       Cd693   2.121       .  S
O687        C705   1.267       .  A
O687       Cd696   2.031       .  S
O688        C702   1.283       .  A
O688       Cd692   2.124       .  S
O689        C700   1.278       .  A
O689       Cd692   2.096       .  S
Zn690       O701   2.007       .  S
Zn690       O703   1.963       .  S
Zn690       O695   1.904       .  S
O691        C702   1.269       .  A
O691       Cd696   2.011       .  S
Cd692       O694   2.089       .  S
Cd692       O695   1.994       .  S
Cd693       O697   2.092       .  S
Cd693       O706   2.104       .  S
Cd693       O695   1.993       .  S
O694        C704   1.282       .  A
O695       Cd696   1.949       .  S
Cd696       O698   2.048       .  S
O697        C704   1.282       .  A
C699        C896   1.483   1_554  S
C699        O703   1.268       .  A
C702        C967   1.483       .  S
C705       C2028   1.468   1_455  S
C705        O706   1.279       .  A
C707       C1036   1.403       .  A
C707       C1040   1.411       .  A
C707        C845   1.482       .  S
C708       C1035   1.403   1_554  A
C708        C709   1.408       .  A
C709        C710   1.401       .  A
C710        C711   1.401       .  A
C710        H714   1.084       .  S
C711        C712   1.395       .  A
C711        C726   1.469       .  S
C712       C1035   1.411   1_554  A
C712       H1043   1.084   1_554  S
H715       C1040   1.084       .  S
C716        C717   1.395       .  A
C716        C721   1.404       .  A
C716       C2017   1.468       .  S
C717        C718   1.408       .  A
C717        H722   1.084       .  S
C718        C719   1.402       .  A
C718        C745   1.486       .  S
C719        C720   1.416       .  A
C719        H723   1.083       .  S
C720        C721   1.404       .  A
C720        C944   1.483       .  S
C721       H2036   1.084       .  S
H724       C2033   1.084       .  S
O725        C741   1.273       .  A
O725       Zn731   2.018       .  S
C726        O742   1.276       .  A
C726        O739   1.272       .  A
O727        C740   1.283       .  A
O727       Cd734   2.121       .  S
O728        C746   1.269       .  A
O728       Cd737   2.022       .  S
O729        C743   1.272       .  A
O729       Cd733   2.062       .  S
O730        C741   1.275       .  A
O730       Cd733   2.073       .  S
Zn731       O742   2.032       .  S
Zn731       O744   1.966       .  S
Zn731       O736   1.921       .  S
O732        C743   1.276       .  A
O732       Cd737   2.076       .  S
Cd733       O735   2.020       .  S
Cd733       O736   1.972       .  S
Cd734       O738   2.124       .  S
Cd734       O747   2.125       .  S
Cd734       O736   2.023       .  S
O735        C745   1.269       .  A
O736       Cd737   1.973       .  S
Cd737       O739   2.058       .  S
O738        C745   1.283       .  A
C740        C784   1.487       .  S
C740        O744   1.269       .  A
C743        C814   1.468       .  S
C746        C775   1.488       .  S
C746        O747   1.283       .  A
O748        C764   1.269       .  A
O748       Zn754   1.988       .  S
C749        O765   1.272       .  A
C749        O762   1.271       .  A
O750        C763   1.283       .  A
O750       Cd757   2.118       .  S
O751        C769   1.268       .  A
O751       Cd760   2.035       .  S
O752        C766   1.283       .  A
O752       Cd756   2.121       .  S
O753        C764   1.278       .  A
O753       Cd756   2.098       .  S
Zn754       O765   2.003       .  S
Zn754       O767   1.961       .  S
Zn754       O759   1.905       .  S
O755        C766   1.269       .  A
O755       Cd760   2.011       .  S
Cd756       O758   2.092       .  S
Cd756       O759   1.996       .  S
Cd757       O761   2.091       .  S
Cd757       O770   2.104       .  S
Cd757       O759   1.994       .  S
O758        C768   1.282       .  A
O759       Cd760   1.953       .  S
Cd760       O762   2.048       .  S
O761        C768   1.282       .  A
C763        C962   1.482   1_554  S
C763        O767   1.268       .  A
C766        C951   1.482       .  S
C769        O770   1.279       .  A
C771        C772   1.404       .  A
C771        C776   1.416       .  A
C771        C889   1.484       .  S
C772        C773   1.404       .  A
C773        C774   1.395       .  A
C774        C775   1.409       .  A
C774        H778   1.084       .  S
C775        C776   1.403       .  A
C776        H779   1.083       .  S
C780        C781   1.405       .  A
C780        C785   1.396       .  A
C780        C810   1.469       .  S
C781        C782   1.404       .  A
C781        H786   1.084       .  S
C782        C783   1.416       .  A
C782        C848   1.485       .  S
C783        C784   1.403       .  A
C783        H787   1.083       .  S
C784        C785   1.409       .  A
C785        H788   1.084       .  S
O789        C805   1.268       .  A
O789       Zn795   1.978       .  S
C790        O806   1.272       .  A
C790        O803   1.272       .  A
O791        C804   1.284       .  A
O791       Cd798   2.125       .  S
O792        C810   1.267       .  A
O792       Cd801   2.030       .  S
O793        C807   1.283       .  A
O793       Cd797   2.123       .  S
O794        C805   1.278       .  A
O794       Cd797   2.100       .  S
Zn795       O806   2.006       .  S
Zn795       O808   1.965       .  S
Zn795       O800   1.903       .  S
O796        C807   1.269       .  A
O796       Cd801   2.012       .  S
Cd797       O799   2.090       .  S
Cd797       O800   1.996       .  S
Cd798       O802   2.094       .  S
Cd798       O811   2.109       .  S
Cd798       O800   1.994       .  S
O799        C809   1.281       .  A
O800       Cd801   1.951       .  S
Cd801       O803   2.049       .  S
O802        C809   1.282       .  A
C804       C1185   1.485   1_554  S
C804        O808   1.269       .  A
C805       C2124   1.468   1_455  S
C807        C862   1.483       .  S
C810        O811   1.280       .  A
C812        C813   1.402       .  A
C812        C817   1.409       .  A
C812       C2117   1.468       .  S
C813        C814   1.402       .  A
C813        H818   1.084       .  S
C814        C815   1.394       .  A
C815       C1144   1.410   1_554  A
C815       H1147   1.084   1_554  S
C816       C1143   1.410       .  A
C816       C1145   1.403       .  A
C816        C886   1.482       .  S
C817       C1144   1.403   1_554  A
C817       H2460   1.084       .  S
H819       C1143   1.084       .  S
H820       C2457   1.084       .  S
C821        C822   1.408       .  A
C821       C2138   1.408       .  A
C821        C947   1.485       .  S
C822        H827   1.084       .  S
C823       C2136   1.407       .  A
C823        C892   1.484       .  S
C824       C2135   1.407   1_455  A
C824        C825   1.406       .  A
C824        H828   1.084       .  S
C825        C851   1.485       .  S
C826       C2133   1.408   1_455  A
C826        H829   1.084       .  S
O830        C846   1.273       .  A
O830       Zn836   2.009       .  S
C831        C853   1.471       .  S
C831        O847   1.268       .  A
C831        O844   1.279       .  A
O832        C845   1.282       .  A
O832       Cd839   2.119       .  S
O833        C851   1.283       .  A
O833       Cd842   2.098       .  S
O834        C848   1.270       .  A
O834       Cd838   2.021       .  S
O835        C846   1.271       .  A
O835       Cd838   2.048       .  S
Zn836       O847   1.981       .  S
Zn836       O849   1.952       .  S
Zn836       O841   1.900       .  S
O837        C848   1.285       .  A
O837       Cd842   2.128       .  S
Cd838       O840   2.033       .  S
Cd838       O841   1.956       .  S
Cd839       O843   2.103       .  S
Cd839       O852   2.087       .  S
Cd839       O841   1.998       .  S
O840        C850   1.268       .  A
O841       Cd842   1.994       .  S
Cd842       O844   2.107       .  S
O843        C850   1.279       .  A
C845        O849   1.268       .  A
C846        C978   1.464       .  S
C851        O852   1.281       .  A
C853        C854   1.397       .  A
C853        C858   1.405       .  A
C854        C855   1.411       .  A
C854        H859   1.084       .  S
C855        C856   1.403       .  A
C855        C918   1.489       .  S
C856        C857   1.416       .  A
C856        H860   1.083       .  S
C857        C858   1.404       .  A
C857       C1132   1.485       .  S
C858        H861   1.084       .  S
C862        C863   1.404       .  A
C862        C867   1.411       .  A
C863        C864   1.408       .  A
C863        H868   1.084       .  S
C864        C865   1.400       .  A
C864       C2203   1.467   1_455  S
C865        C866   1.401       .  A
C865        H869   1.084       .  S
C866        C867   1.395       .  A
C866        C919   1.467       .  S
C867        H870   1.084       .  S
O871        C887   1.272       .  A
O871       Zn877   2.005       .  S
C872        O888   1.267       .  A
C872        O885   1.279       .  A
O873        C886   1.282       .  A
O873       Cd880   2.119       .  S
O874        C892   1.282       .  A
O874       Cd883   2.095       .  S
O875        C889   1.269       .  A
O875       Cd879   2.022       .  S
O876        C887   1.272       .  A
O876       Cd879   2.050       .  S
Zn877       O888   1.977       .  S
Zn877       O890   1.950       .  S
Zn877       O882   1.897       .  S
O878        C889   1.284       .  A
O878       Cd883   2.125       .  S
Cd879       O881   2.038       .  S
Cd879       O882   1.958       .  S
Cd880       O884   2.098       .  S
Cd880       O893   2.087       .  S
Cd880       O882   1.997       .  S
O881        C891   1.269       .  A
O882       Cd883   1.992       .  S
Cd883       O885   2.100       .  S
O884        C891   1.278       .  A
C886        O890   1.268       .  A
C887        C976   1.463       .  S
C891       C2176   1.467       .  S
C892        O893   1.281       .  A
C894        C895   1.403       .  A
C894        C899   1.396       .  A
C894       C2239   1.470   1_455  S
C895       C1224   1.403       .  A
C895       H2212   1.084       .  S
C896       C1223   1.403       .  A
C896       C1225   1.416       .  A
C897       C1224   1.416       .  A
C897        C898   1.403       .  A
C897        H901   1.083       .  S
C898        C899   1.410       .  A
C898        C923   1.489       .  S
C899        H902   1.084       .  S
H900       C2207   1.084       .  S
O903        C919   1.275       .  A
O903       Zn909   2.030       .  S
C904        C953   1.467       .  S
C904        O920   1.272       .  A
C904        O917   1.275       .  A
O905        C918   1.284       .  A
O905       Cd912   2.131       .  S
O906        C924   1.269       .  A
O906       Cd915   2.017       .  S
O907        C921   1.275       .  A
O907       Cd911   2.073       .  S
O908        C919   1.271       .  A
O908       Cd911   2.054       .  S
Zn909       O920   2.013       .  S
Zn909       O922   1.962       .  S
Zn909       O914   1.919       .  S
O910        C921   1.272       .  A
O910       Cd915   2.060       .  S
Cd911       O913   2.019       .  S
Cd911       O914   1.970       .  S
Cd912       O916   2.132       .  S
Cd912       O925   2.131       .  S
Cd912       O914   2.024       .  S
O913        C923   1.269       .  A
O914       Cd915   1.971       .  S
Cd915       O917   2.070       .  S
O916        C923   1.284       .  A
C918        O922   1.269       .  A
C921        C969   1.466       .  S
C924        C960   1.487       .  S
C924        O925   1.284       .  A
O926        C942   1.272       .  A
O926       Zn932   2.006       .  S
C927       C2206   1.470       .  S
C927        O943   1.268       .  A
C927        O940   1.279       .  A
O928        C941   1.282       .  A
O928       Cd935   2.119       .  S
O929        C947   1.282       .  A
O929       Cd938   2.096       .  S
O930        C944   1.269       .  A
O930       Cd934   2.020       .  S
O931        C942   1.271       .  A
O931       Cd934   2.044       .  S
Zn932       O943   1.982       .  S
Zn932       O945   1.955       .  S
Zn932       O937   1.900       .  S
O933        C944   1.284       .  A
O933       Cd938   2.123       .  S
Cd934       O936   2.036       .  S
Cd934       O937   1.957       .  S
Cd935       O939   2.100       .  S
Cd935       O948   2.090       .  S
Cd935       O937   1.997       .  S
O936        C946   1.268       .  A
O937       Cd938   1.992       .  S
Cd938       O940   2.102       .  S
O939        C946   1.278       .  A
C941        O945   1.268       .  A
C942        C980   1.461       .  S
C946        C949   1.467       .  S
C947        O948   1.282       .  A
C949        C950   1.409       .  A
C949        C954   1.402       .  A
C950        C951   1.404       .  A
C950        H955   1.084       .  S
C951        C952   1.410       .  A
C952        C953   1.394       .  A
C952        H956   1.084       .  S
C953        C954   1.401       .  A
C954        H957   1.084       .  S
C958        C959   1.395       .  A
C958        C963   1.404       .  A
C959        C960   1.410       .  A
C959        H964   1.084       .  S
C960        C961   1.402       .  A
C961       C1290   1.416       .  A
C961        H965   1.083       .  S
C962       C1289   1.416       .  A
C962       C1291   1.403       .  A
C963       C1290   1.403       .  A
C967        C968   1.410       .  A
C967        C972   1.404       .  A
C968        C969   1.394       .  A
C968        H973   1.084       .  S
C969        C970   1.400       .  A
C970        C971   1.401       .  A
C970        H974   1.084       .  S
C971        C972   1.409       .  A
C976        C977   1.401       .  A
C976        C981   1.399       .  A
C977        C978   1.401       .  A
C977        H982   1.084       .  S
C978        C979   1.399       .  A
C979        C980   1.399       .  A
C979        H983   1.084       .  S
C980        C981   1.398       .  A
C981        H984   1.084       .  S
C985        C990   1.408       .  A
C985       C1096   1.485       .  S
C986       C2299   1.407       .  A
C986        H991   1.084       .  S
C987       C2298   1.407   1_455  A
C987        C988   1.406       .  A
C987       C1137   1.484       .  S
C988        H992   1.084       .  S
C989       C2302   1.407   1_455  A
C989       C1032   1.483       .  S
C990       C2301   1.407       .  A
C990        H993   1.084       .  S
C994        C995   1.401       .  A
C994        C999   1.399       .  A
C994       C1013   1.463       .  S
C995        C996   1.401       .  A
C995       H1000   1.084       .  S
C996        C997   1.399       .  A
C996       C1118   1.464       .  S
C997        C998   1.398       .  A
C997       H1001   1.084       .  S
C998        C999   1.399       .  A
C998       C1077   1.461       .  S
C999       H1002   1.084       .  S
C1003      C1004   1.402       .  A
C1003      C1008   1.409       .  A
C1003      C1092   1.469       .  S
C1004      C1005   1.402       .  A
C1004      H1009   1.084       .  S
C1005      C1006   1.395       .  A
C1005      C1069   1.470       .  S
C1007      C1269   1.483       .  S
O1012      C1028   1.269       .  A
O1012     Zn1018   1.985       .  S
C1013      O1029   1.273       .  A
C1013      O1026   1.271       .  A
O1014      C1027   1.283       .  A
O1014     Cd1021   2.121       .  S
O1015      C1033   1.267       .  A
O1015     Cd1024   2.031       .  S
O1016      C1030   1.283       .  A
O1016     Cd1020   2.124       .  S
O1017      C1028   1.278       .  A
O1017     Cd1020   2.096       .  S
Zn1018     O1029   2.007       .  S
Zn1018     O1031   1.963       .  S
Zn1018     O1023   1.904       .  S
O1019      C1030   1.269       .  A
O1019     Cd1024   2.011       .  S
Cd1020     O1022   2.089       .  S
Cd1020     O1023   1.994       .  S
Cd1021     O1025   2.092       .  S
Cd1021     O1034   2.104       .  S
Cd1021     O1023   1.993       .  S
O1022      C1032   1.282       .  A
O1023     Cd1024   1.949       .  S
Cd1024     O1026   2.048       .  S
O1025      C1032   1.282       .  A
C1027      C1224   1.483       .  S
C1027      O1031   1.268       .  A
C1030      C1295   1.483       .  S
C1033      C2356   1.468   1_455  S
C1033      O1034   1.279       .  A
C1035      C1173   1.482       .  S
C1036      C1037   1.408       .  A
C1037      C1038   1.401       .  A
C1038      C1039   1.401       .  A
C1038      H1042   1.084       .  S
C1039      C1040   1.395       .  A
C1039      C1054   1.469       .  S
C1044      C1045   1.395       .  A
C1044      C1049   1.404       .  A
C1044      C2345   1.468       .  S
C1045      C1046   1.408       .  A
C1045      H1050   1.084       .  S
C1046      C1047   1.402       .  A
C1046      C1073   1.486       .  S
C1047      C1048   1.416       .  A
C1047      H1051   1.083       .  S
C1048      C1049   1.404       .  A
C1048      C1272   1.483       .  S
C1049      H2364   1.084       .  S
H1052      C2361   1.084       .  S
O1053      C1069   1.273       .  A
O1053     Zn1059   2.018       .  S
C1054      O1070   1.276       .  A
C1054      O1067   1.272       .  A
O1055      C1068   1.283       .  A
O1055     Cd1062   2.121       .  S
O1056      C1074   1.269       .  A
O1056     Cd1065   2.022       .  S
O1057      C1071   1.272       .  A
O1057     Cd1061   2.062       .  S
O1058      C1069   1.275       .  A
O1058     Cd1061   2.073       .  S
Zn1059     O1070   2.032       .  S
Zn1059     O1072   1.966       .  S
Zn1059     O1064   1.921       .  S
O1060      C1071   1.276       .  A
O1060     Cd1065   2.076       .  S
Cd1061     O1063   2.020       .  S
Cd1061     O1064   1.972       .  S
Cd1062     O1066   2.124       .  S
Cd1062     O1075   2.125       .  S
Cd1062     O1064   2.023       .  S
O1063      C1073   1.269       .  A
O1064     Cd1065   1.973       .  S
Cd1065     O1067   2.058       .  S
O1066      C1073   1.283       .  A
C1068      C1112   1.487       .  S
C1068      O1072   1.269       .  A
C1071      C1142   1.468       .  S
C1074      C1103   1.488       .  S
C1074      O1075   1.283       .  A
O1076      C1092   1.269       .  A
O1076     Zn1082   1.988       .  S
C1077      O1093   1.272       .  A
C1077      O1090   1.271       .  A
O1078      C1091   1.283       .  A
O1078     Cd1085   2.118       .  S
O1079      C1097   1.268       .  A
O1079     Cd1088   2.035       .  S
O1080      C1094   1.283       .  A
O1080     Cd1084   2.121       .  S
O1081      C1092   1.278       .  A
O1081     Cd1084   2.098       .  S
Zn1082     O1093   2.003       .  S
Zn1082     O1095   1.961       .  S
Zn1082     O1087   1.905       .  S
O1083      C1094   1.269       .  A
O1083     Cd1088   2.011       .  S
Cd1084     O1086   2.092       .  S
Cd1084     O1087   1.996       .  S
Cd1085     O1089   2.091       .  S
Cd1085     O1098   2.104       .  S
Cd1085     O1087   1.994       .  S
O1086      C1096   1.282       .  A
O1087     Cd1088   1.953       .  S
Cd1088     O1090   2.048       .  S
O1089      C1096   1.282       .  A
C1091      C1290   1.482       .  S
C1091      O1095   1.268       .  A
C1094      C1279   1.482       .  S
C1097      O1098   1.279       .  A
C1099      C1100   1.404       .  A
C1099      C1104   1.416       .  A
C1099      C1217   1.484       .  S
C1100      C1101   1.404       .  A
C1101      C1102   1.395       .  A
C1102      C1103   1.409       .  A
C1102      H1106   1.084       .  S
C1103      C1104   1.403       .  A
C1104      H1107   1.083       .  S
C1108      C1109   1.405       .  A
C1108      C1113   1.396       .  A
C1108      C1138   1.469       .  S
C1109      C1110   1.404       .  A
C1109      H1114   1.084       .  S
C1110      C1111   1.416       .  A
C1110      C1176   1.485       .  S
C1111      C1112   1.403       .  A
C1111      H1115   1.083       .  S
C1112      C1113   1.409       .  A
C1113      H1116   1.084       .  S
O1117      C1133   1.268       .  A
O1117     Zn1123   1.978       .  S
C1118      O1134   1.272       .  A
C1118      O1131   1.272       .  A
O1119      C1132   1.284       .  A
O1119     Cd1126   2.124       .  S
O1120      C1138   1.267       .  A
O1120     Cd1129   2.030       .  S
O1121      C1135   1.283       .  A
O1121     Cd1125   2.123       .  S
O1122      C1133   1.278       .  A
O1122     Cd1125   2.100       .  S
Zn1123     O1134   2.006       .  S
Zn1123     O1136   1.965       .  S
Zn1123     O1128   1.903       .  S
O1124      C1135   1.269       .  A
O1124     Cd1129   2.012       .  S
Cd1125     O1127   2.090       .  S
Cd1125     O1128   1.996       .  S
Cd1126     O1130   2.094       .  S
Cd1126     O1139   2.109       .  S
Cd1126     O1128   1.994       .  S
O1127      C1137   1.281       .  A
O1128     Cd1129   1.951       .  S
Cd1129     O1131   2.049       .  S
O1130      C1137   1.282       .  A
C1132      O1136   1.269       .  A
C1133      C2452   1.468   1_455  S
C1135      C1190   1.483       .  S
C1138      O1139   1.280       .  A
C1140      C1141   1.402       .  A
C1140      C1145   1.409       .  A
C1140      C2445   1.468       .  S
C1141      C1142   1.402       .  A
C1141      H1146   1.084       .  S
C1142      C1143   1.394       .  A
C1144      C1214   1.482       .  S
C1145      H2132   1.084       .  S
H1148      C2129   1.084       .  S
C1149      C1150   1.408       .  A
C1149      C2466   1.408       .  A
C1149      C1275   1.485       .  S
C1150      H1155   1.084       .  S
C1151      C2464   1.407       .  A
C1151      C1220   1.484       .  S
C1152      C2463   1.407   1_455  A
C1152      C1153   1.406       .  A
C1152      H1156   1.084       .  S
C1153      C1179   1.485       .  S
C1154      C2461   1.408   1_455  A
C1154      H1157   1.084       .  S
O1158      C1174   1.273       .  A
O1158     Zn1164   2.009       .  S
C1159      C1181   1.471       .  S
C1159      O1175   1.268       .  A
C1159      O1172   1.279       .  A
O1160      C1173   1.282       .  A
O1160     Cd1167   2.119       .  S
O1161      C1179   1.283       .  A
O1161     Cd1170   2.098       .  S
O1162      C1176   1.270       .  A
O1162     Cd1166   2.021       .  S
O1163      C1174   1.271       .  A
O1163     Cd1166   2.048       .  S
Zn1164     O1175   1.981       .  S
Zn1164     O1177   1.952       .  S
Zn1164     O1169   1.900       .  S
O1165      C1176   1.285       .  A
O1165     Cd1170   2.128       .  S
Cd1166     O1168   2.033       .  S
Cd1166     O1169   1.956       .  S
Cd1167     O1171   2.103       .  S
Cd1167     O1180   2.087       .  S
Cd1167     O1169   1.998       .  S
O1168      C1178   1.268       .  A
O1169     Cd1170   1.994       .  S
Cd1170     O1172   2.107       .  S
O1171      C1178   1.279       .  A
C1173      O1177   1.268       .  A
C1174      C1306   1.464       .  S
C1179      O1180   1.281       .  A
C1181      C1182   1.397       .  A
C1181      C1186   1.405       .  A
C1182      C1183   1.411       .  A
C1182      H1187   1.084       .  S
C1183      C1184   1.403       .  A
C1183      C1246   1.489       .  S
C1184      C1185   1.416       .  A
C1184      H1188   1.083       .  S
C1185      C1186   1.404       .  A
C1186      H1189   1.084       .  S
C1190      C1191   1.404       .  A
C1190      C1195   1.411       .  A
C1191      C1192   1.408       .  A
C1191      H1196   1.084       .  S
C1192      C1193   1.400       .  A
C1192      C2531   1.467   1_455  S
C1193      C1194   1.401       .  A
C1193      H1197   1.084       .  S
C1194      C1195   1.395       .  A
C1194      C1247   1.467       .  S
C1195      H1198   1.084       .  S
O1199      C1215   1.272       .  A
O1199     Zn1205   2.005       .  S
C1200      O1216   1.267       .  A
C1200      O1213   1.279       .  A
O1201      C1214   1.282       .  A
O1201     Cd1208   2.119       .  S
O1202      C1220   1.282       .  A
O1202     Cd1211   2.095       .  S
O1203      C1217   1.269       .  A
O1203     Cd1207   2.022       .  S
O1204      C1215   1.272       .  A
O1204     Cd1207   2.050       .  S
Zn1205     O1216   1.977       .  S
Zn1205     O1218   1.950       .  S
Zn1205     O1210   1.897       .  S
O1206      C1217   1.284       .  A
O1206     Cd1211   2.125       .  S
Cd1207     O1209   2.038       .  S
Cd1207     O1210   1.958       .  S
Cd1208     O1212   2.098       .  S
Cd1208     O1221   2.087       .  S
Cd1208     O1210   1.997       .  S
O1209      C1219   1.269       .  A
O1210     Cd1211   1.992       .  S
Cd1211     O1213   2.100       .  S
O1212      C1219   1.278       .  A
C1214      O1218   1.268       .  A
C1215      C1304   1.463       .  S
C1219      C2504   1.467       .  S
C1220      O1221   1.281       .  A
C1222      C1223   1.403       .  A
C1222      C1227   1.396       .  A
C1222      C2567   1.470   1_455  S
C1223      H2540   1.084       .  S
C1225      C1226   1.403       .  A
C1225      H1229   1.083       .  S
C1226      C1227   1.410       .  A
C1226      C1251   1.489       .  S
C1227      H1230   1.084       .  S
H1228      C2535   1.084       .  S
O1231      C1247   1.275       .  A
O1231     Zn1237   2.030       .  S
C1232      C1281   1.467       .  S
C1232      O1248   1.272       .  A
C1232      O1245   1.275       .  A
O1233      C1246   1.284       .  A
O1233     Cd1240   2.131       .  S
O1234      C1252   1.269       .  A
O1234     Cd1243   2.017       .  S
O1235      C1249   1.275       .  A
O1235     Cd1239   2.073       .  S
O1236      C1247   1.271       .  A
O1236     Cd1239   2.054       .  S
Zn1237     O1248   2.013       .  S
Zn1237     O1250   1.962       .  S
Zn1237     O1242   1.919       .  S
O1238      C1249   1.272       .  A
O1238     Cd1243   2.060       .  S
Cd1239     O1241   2.019       .  S
Cd1239     O1242   1.970       .  S
Cd1240     O1244   2.132       .  S
Cd1240     O1253   2.131       .  S
Cd1240     O1242   2.024       .  S
O1241      C1251   1.269       .  A
O1242     Cd1243   1.971       .  S
Cd1243     O1245   2.070       .  S
O1244      C1251   1.284       .  A
C1246      O1250   1.269       .  A
C1249      C1297   1.466       .  S
C1252      C1288   1.487       .  S
C1252      O1253   1.284       .  A
O1254      C1270   1.272       .  A
O1254     Zn1260   2.006       .  S
C1255      C2534   1.470       .  S
C1255      O1271   1.268       .  A
C1255      O1268   1.279       .  A
O1256      C1269   1.282       .  A
O1256     Cd1263   2.119       .  S
O1257      C1275   1.282       .  A
O1257     Cd1266   2.096       .  S
O1258      C1272   1.269       .  A
O1258     Cd1262   2.020       .  S
O1259      C1270   1.271       .  A
O1259     Cd1262   2.044       .  S
Zn1260     O1271   1.982       .  S
Zn1260     O1273   1.955       .  S
Zn1260     O1265   1.900       .  S
O1261      C1272   1.284       .  A
O1261     Cd1266   2.123       .  S
Cd1262     O1264   2.036       .  S
Cd1262     O1265   1.957       .  S
Cd1263     O1267   2.100       .  S
Cd1263     O1276   2.090       .  S
Cd1263     O1265   1.997       .  S
O1264      C1274   1.268       .  A
O1265     Cd1266   1.992       .  S
Cd1266     O1268   2.102       .  S
O1267      C1274   1.278       .  A
C1269      O1273   1.268       .  A
C1270      C1308   1.461       .  S
C1274      C1277   1.467       .  S
C1275      O1276   1.282       .  A
C1277      C1278   1.409       .  A
C1277      C1282   1.402       .  A
C1278      C1279   1.404       .  A
C1278      H1283   1.084       .  S
C1279      C1280   1.410       .  A
C1280      C1281   1.394       .  A
C1280      H1284   1.084       .  S
C1281      C1282   1.401       .  A
C1282      H1285   1.084       .  S
C1286      C1287   1.395       .  A
C1286      C1291   1.404       .  A
C1287      C1288   1.410       .  A
C1287      H1292   1.084       .  S
C1288      C1289   1.402       .  A
C1289      H1293   1.083       .  S
C1295      C1296   1.410       .  A
C1295      C1300   1.404       .  A
C1296      C1297   1.394       .  A
C1296      H1301   1.084       .  S
C1297      C1298   1.400       .  A
C1298      C1299   1.401       .  A
C1298      H1302   1.084       .  S
C1299      C1300   1.409       .  A
C1304      C1305   1.401       .  A
C1304      C1309   1.399       .  A
C1305      C1306   1.401       .  A
C1305      H1310   1.084       .  S
C1306      C1307   1.399       .  A
C1307      C1308   1.399       .  A
C1307      H1311   1.084       .  S
C1308      C1309   1.398       .  A
C1309      H1312   1.084       .  S
C1313      C1970   1.408       .  A
C1313      C1318   1.408       .  A
C1313      C1424   1.485       .  S
C1314      C1969   1.408   1_545  A
C1314      H1319   1.084       .  S
C1315      C1316   1.406       .  A
C1315      C1465   1.484       .  S
C1316      C1973   1.407   1_545  A
C1316      H1320   1.084       .  S
C1317      C1972   1.407       .  A
C1317      C1360   1.483       .  S
C1318      H1321   1.084       .  S
C1322      C1323   1.401       .  A
C1322      C1327   1.399       .  A
C1322      C1341   1.463       .  S
C1323      C1324   1.401       .  A
C1323      H1328   1.084       .  S
C1324      C1325   1.399       .  A
C1324      C1446   1.464       .  S
C1325      C1326   1.398       .  A
C1325      H1329   1.084       .  S
C1326      C1327   1.399       .  A
C1326      C1405   1.461       .  S
C1327      H1330   1.084       .  S
C1331      C1332   1.402       .  A
C1331      C1336   1.409       .  A
C1331      C1420   1.469       .  S
C1332      C1333   1.402       .  A
C1332      H1337   1.084       .  S
C1333      C1334   1.395       .  A
C1333      C1397   1.470       .  S
C1334      C1663   1.410   1_554  A
C1334      H1666   1.084   1_554  S
C1335      C1662   1.410       .  A
C1335      C1664   1.404       .  A
C1335      C1597   1.483       .  S
C1336      C1663   1.404   1_554  A
C1336      H1667   1.084       .  S
H1338      C1662   1.084       .  S
H1339      C1664   1.084       .  S
O1340      C1356   1.269       .  A
O1340     Zn1346   1.985       .  S
C1341      O1357   1.273       .  A
C1341      O1354   1.271       .  A
O1342      C1355   1.283       .  A
O1342     Cd1349   2.121       .  S
O1343      C1361   1.267       .  A
O1343     Cd1352   2.031       .  S
O1344      C1358   1.283       .  A
O1344     Cd1348   2.124       .  S
O1345      C1356   1.278       .  A
O1345     Cd1348   2.096       .  S
Zn1346     O1357   2.007       .  S
Zn1346     O1359   1.963       .  S
Zn1346     O1351   1.904       .  S
O1347      C1358   1.269       .  A
O1347     Cd1352   2.011       .  S
Cd1348     O1350   2.089       .  S
Cd1348     O1351   1.994       .  S
Cd1349     O1353   2.092       .  S
Cd1349     O1362   2.104       .  S
Cd1349     O1351   1.993       .  S
O1350      C1360   1.282       .  A
O1351     Cd1352   1.949       .  S
Cd1352     O1354   2.048       .  S
O1353      C1360   1.282       .  A
C1355      C1552   1.483   1_554  S
C1355      O1359   1.268       .  A
C1356      C2021   1.467       .  S
C1358      C1623   1.483       .  S
C1361      O1362   1.279       .  A
C1363      C1692   1.403       .  A
C1363      C1696   1.411       .  A
C1363      C1501   1.482       .  S
C1364      C1691   1.403   1_554  A
C1364      C1365   1.408       .  A
C1364      H2353   1.084       .  S
C1365      C1366   1.401       .  A
C1365      C2012   1.467   1_545  S
C1366      C1367   1.401       .  A
C1366      H1370   1.084       .  S
C1367      C1368   1.395       .  A
C1367      C1382   1.469       .  S
C1368      C1691   1.411   1_554  A
C1368      H1699   1.084   1_554  S
H1369      C2348   1.084       .  S
H1371      C1696   1.084       .  S
C1372      C1373   1.395       .  A
C1372      C1377   1.404       .  A
C1373      C1374   1.408       .  A
C1373      H1378   1.084       .  S
C1374      C1375   1.402       .  A
C1374      C1401   1.486       .  S
C1375      C1376   1.416       .  A
C1375      H1379   1.083       .  S
C1376      C1377   1.404       .  A
C1376      C1600   1.483       .  S
O1381      C1397   1.273       .  A
O1381     Zn1387   2.018       .  S
C1382      O1398   1.276       .  A
C1382      O1395   1.272       .  A
O1383      C1396   1.283       .  A
O1383     Cd1390   2.121       .  S
O1384      C1402   1.269       .  A
O1384     Cd1393   2.022       .  S
O1385      C1399   1.272       .  A
O1385     Cd1389   2.062       .  S
O1386      C1397   1.275       .  A
O1386     Cd1389   2.073       .  S
Zn1387     O1398   2.032       .  S
Zn1387     O1400   1.966       .  S
Zn1387     O1392   1.921       .  S
O1388      C1399   1.276       .  A
O1388     Cd1393   2.076       .  S
Cd1389     O1391   2.020       .  S
Cd1389     O1392   1.972       .  S
Cd1390     O1394   2.124       .  S
Cd1390     O1403   2.125       .  S
Cd1390     O1392   2.023       .  S
O1391      C1401   1.269       .  A
O1392     Cd1393   1.973       .  S
Cd1393     O1395   2.058       .  S
O1394      C1401   1.283       .  A
C1396      C1440   1.487       .  S
C1396      O1400   1.269       .  A
C1399      C1470   1.468       .  S
C1402      C1431   1.488       .  S
C1402      O1403   1.283       .  A
O1404      C1420   1.269       .  A
O1404     Zn1410   1.988       .  S
C1405      O1421   1.272       .  A
C1405      O1418   1.271       .  A
O1406      C1419   1.283       .  A
O1406     Cd1413   2.118       .  S
O1407      C1425   1.268       .  A
O1407     Cd1416   2.035       .  S
O1408      C1422   1.283       .  A
O1408     Cd1412   2.121       .  S
O1409      C1420   1.278       .  A
O1409     Cd1412   2.098       .  S
Zn1410     O1421   2.003       .  S
Zn1410     O1423   1.961       .  S
Zn1410     O1415   1.905       .  S
O1411      C1422   1.269       .  A
O1411     Cd1416   2.011       .  S
Cd1412     O1414   2.092       .  S
Cd1412     O1415   1.996       .  S
Cd1413     O1417   2.091       .  S
Cd1413     O1426   2.104       .  S
Cd1413     O1415   1.994       .  S
O1414      C1424   1.282       .  A
O1415     Cd1416   1.953       .  S
Cd1416     O1418   2.048       .  S
O1417      C1424   1.282       .  A
C1419      C1618   1.482   1_554  S
C1419      O1423   1.268       .  A
C1422      C1607   1.482       .  S
C1425      C2085   1.469       .  S
C1425      O1426   1.279       .  A
C1427      C1428   1.404       .  A
C1427      C1432   1.416       .  A
C1427      C1545   1.484       .  S
C1428      C1429   1.404       .  A
C1428      H2089   1.084       .  S
C1429      C1430   1.395       .  A
C1429      C2081   1.469   1_545  S
C1430      C1431   1.409       .  A
C1430      H1434   1.084       .  S
C1431      C1432   1.403       .  A
C1432      H1435   1.083       .  S
H1433      C2084   1.084       .  S
C1436      C1437   1.405       .  A
C1436      C1441   1.396       .  A
C1436      C1466   1.469       .  S
C1437      C1438   1.404       .  A
C1437      H1442   1.084       .  S
C1438      C1439   1.416       .  A
C1438      C1504   1.485       .  S
C1439      C1440   1.403       .  A
C1439      H1443   1.083       .  S
C1440      C1441   1.409       .  A
C1441      H1444   1.084       .  S
O1445      C1461   1.268       .  A
O1445     Zn1451   1.978       .  S
C1446      O1462   1.272       .  A
C1446      O1459   1.272       .  A
O1447      C1460   1.284       .  A
O1447     Cd1454   2.125       .  S
O1448      C1466   1.267       .  A
O1448     Cd1457   2.030       .  S
O1449      C1463   1.283       .  A
O1449     Cd1453   2.123       .  S
O1450      C1461   1.278       .  A
O1450     Cd1453   2.100       .  S
Zn1451     O1462   2.006       .  S
Zn1451     O1464   1.965       .  S
Zn1451     O1456   1.903       .  S
O1452      C1463   1.269       .  A
O1452     Cd1457   2.012       .  S
Cd1453     O1455   2.090       .  S
Cd1453     O1456   1.996       .  S
Cd1454     O1458   2.094       .  S
Cd1454     O1467   2.109       .  S
Cd1454     O1456   1.994       .  S
O1455      C1465   1.281       .  A
O1456     Cd1457   1.951       .  S
Cd1457     O1459   2.049       .  S
O1458      C1465   1.282       .  A
C1460      C1841   1.485   1_554  S
C1460      O1464   1.269       .  A
C1463      C1518   1.483       .  S
C1466      O1467   1.280       .  A
C1468      C1469   1.402       .  A
C1468      C1473   1.409       .  A
C1469      C1470   1.402       .  A
C1469      H1474   1.084       .  S
C1470      C1471   1.394       .  A
C1471      C1800   1.410   1_554  A
C1471      H1803   1.084   1_554  S
C1472      C1799   1.410       .  A
C1472      C1801   1.403       .  A
C1472      C1542   1.482       .  S
C1473      C1800   1.403   1_554  A
H1475      C1799   1.084       .  S
C1477      C1478   1.408       .  A
C1477      C1603   1.485       .  S
C1478      C2135   1.407       .  A
C1478      H1483   1.084       .  S
C1479      C2134   1.407   1_545  A
C1479      C1548   1.484       .  S
C1480      C1481   1.406       .  A
C1480      H1484   1.084       .  S
C1481      C2138   1.408   1_545  A
C1481      C1507   1.485       .  S
C1482      C2137   1.408       .  A
C1482      H1485   1.084       .  S
O1486      C1502   1.273       .  A
O1486     Zn1492   2.009       .  S
C1487      C1509   1.471       .  S
C1487      O1503   1.268       .  A
C1487      O1500   1.279       .  A
O1488      C1501   1.282       .  A
O1488     Cd1495   2.119       .  S
O1489      C1507   1.283       .  A
O1489     Cd1498   2.098       .  S
O1490      C1504   1.270       .  A
O1490     Cd1494   2.021       .  S
O1491      C1502   1.271       .  A
O1491     Cd1494   2.048       .  S
Zn1492     O1503   1.981       .  S
Zn1492     O1505   1.952       .  S
Zn1492     O1497   1.900       .  S
O1493      C1504   1.285       .  A
O1493     Cd1498   2.128       .  S
Cd1494     O1496   2.033       .  S
Cd1494     O1497   1.956       .  S
Cd1495     O1499   2.103       .  S
Cd1495     O1508   2.087       .  S
Cd1495     O1497   1.998       .  S
O1496      C1506   1.268       .  A
O1497     Cd1498   1.994       .  S
Cd1498     O1500   2.107       .  S
O1499      C1506   1.279       .  A
C1501      O1505   1.268       .  A
C1502      C1634   1.464       .  S
C1506      C2283   1.467   1_545  S
C1507      O1508   1.281       .  A
C1509      C1510   1.397       .  A
C1509      C1514   1.405       .  A
C1510      C1511   1.411       .  A
C1510      H1515   1.084       .  S
C1511      C1512   1.403       .  A
C1511      C1574   1.489       .  S
C1512      C1513   1.416       .  A
C1512      H1516   1.083       .  S
C1513      C1514   1.404       .  A
C1513      C1788   1.485       .  S
C1514      H1517   1.084       .  S
C1518      C1519   1.404       .  A
C1518      C1523   1.411       .  A
C1519      C1520   1.408       .  A
C1519      H1524   1.084       .  S
C1520      C1521   1.400       .  A
C1521      C1522   1.401       .  A
C1521      H1525   1.084       .  S
C1522      C1523   1.395       .  A
C1522      C1575   1.467       .  S
C1523      H1526   1.084       .  S
O1527      C1543   1.272       .  A
O1527     Zn1533   2.005       .  S
C1528      C2270   1.469   1_545  S
C1528      O1544   1.267       .  A
C1528      O1541   1.279       .  A
O1529      C1542   1.282       .  A
O1529     Cd1536   2.119       .  S
O1530      C1548   1.282       .  A
O1530     Cd1539   2.095       .  S
O1531      C1545   1.269       .  A
O1531     Cd1535   2.022       .  S
O1532      C1543   1.272       .  A
O1532     Cd1535   2.050       .  S
Zn1533     O1544   1.977       .  S
Zn1533     O1546   1.950       .  S
Zn1533     O1538   1.897       .  S
O1534      C1545   1.284       .  A
O1534     Cd1539   2.125       .  S
Cd1535     O1537   2.038       .  S
Cd1535     O1538   1.958       .  S
Cd1536     O1540   2.098       .  S
Cd1536     O1549   2.087       .  S
Cd1536     O1538   1.997       .  S
O1537      C1547   1.269       .  A
O1538     Cd1539   1.992       .  S
Cd1539     O1541   2.100       .  S
O1540      C1547   1.278       .  A
C1542      O1546   1.268       .  A
C1543      C1632   1.463       .  S
C1548      O1549   1.281       .  A
C1550      C1551   1.403       .  A
C1550      C1555   1.396       .  A
C1551      C1880   1.403       .  A
C1552      C1879   1.403       .  A
C1552      C1881   1.416       .  A
C1553      C1880   1.416       .  A
C1553      C1554   1.403       .  A
C1553      H1557   1.083       .  S
C1554      C1555   1.410       .  A
C1554      C1579   1.489       .  S
C1555      H1558   1.084       .  S
O1559      C1575   1.275       .  A
O1559     Zn1565   2.030       .  S
C1560      C1609   1.467       .  S
C1560      O1576   1.272       .  A
C1560      O1573   1.275       .  A
O1561      C1574   1.284       .  A
O1561     Cd1568   2.131       .  S
O1562      C1580   1.269       .  A
O1562     Cd1571   2.017       .  S
O1563      C1577   1.275       .  A
O1563     Cd1567   2.073       .  S
O1564      C1575   1.271       .  A
O1564     Cd1567   2.054       .  S
Zn1565     O1576   2.013       .  S
Zn1565     O1578   1.962       .  S
Zn1565     O1570   1.919       .  S
O1566      C1577   1.272       .  A
O1566     Cd1571   2.060       .  S
Cd1567     O1569   2.019       .  S
Cd1567     O1570   1.970       .  S
Cd1568     O1572   2.132       .  S
Cd1568     O1581   2.131       .  S
Cd1568     O1570   2.024       .  S
O1569      C1579   1.269       .  A
O1570     Cd1571   1.971       .  S
Cd1571     O1573   2.070       .  S
O1572      C1579   1.284       .  A
C1574      O1578   1.269       .  A
C1577      C1625   1.466       .  S
C1580      C1616   1.487       .  S
C1580      O1581   1.284       .  A
O1582      C1598   1.272       .  A
O1582     Zn1588   2.006       .  S
C1583      O1599   1.268       .  A
C1583      O1596   1.279       .  A
O1584      C1597   1.282       .  A
O1584     Cd1591   2.119       .  S
O1585      C1603   1.282       .  A
O1585     Cd1594   2.096       .  S
O1586      C1600   1.269       .  A
O1586     Cd1590   2.020       .  S
O1587      C1598   1.271       .  A
O1587     Cd1590   2.044       .  S
Zn1588     O1599   1.982       .  S
Zn1588     O1601   1.955       .  S
Zn1588     O1593   1.900       .  S
O1589      C1600   1.284       .  A
O1589     Cd1594   2.123       .  S
Cd1590     O1592   2.036       .  S
Cd1590     O1593   1.957       .  S
Cd1591     O1595   2.100       .  S
Cd1591     O1604   2.090       .  S
Cd1591     O1593   1.997       .  S
O1592      C1602   1.268       .  A
O1593     Cd1594   1.992       .  S
Cd1594     O1596   2.102       .  S
O1595      C1602   1.278       .  A
C1597      O1601   1.268       .  A
C1598      C1636   1.461       .  S
C1602      C1605   1.467       .  S
C1603      O1604   1.282       .  A
C1605      C1606   1.409       .  A
C1605      C1610   1.402       .  A
C1606      C1607   1.404       .  A
C1606      H1611   1.084       .  S
C1607      C1608   1.410       .  A
C1608      C1609   1.394       .  A
C1608      H1612   1.084       .  S
C1609      C1610   1.401       .  A
C1610      H1613   1.084       .  S
C1614      C1615   1.395       .  A
C1614      C1619   1.404       .  A
C1614      C2184   1.469       .  S
C1615      C1616   1.410       .  A
C1615      H1620   1.084       .  S
C1616      C1617   1.402       .  A
C1617      C1946   1.416       .  A
C1617      H1621   1.083       .  S
C1618      C1945   1.416       .  A
C1618      C1947   1.403       .  A
C1619      C1946   1.403       .  A
C1619      H2278   1.084       .  S
H1622      C2275   1.084       .  S
C1623      C1624   1.410       .  A
C1623      C1628   1.404       .  A
C1624      C1625   1.394       .  A
C1624      H1629   1.084       .  S
C1625      C1626   1.400       .  A
C1626      C1627   1.401       .  A
C1626      H1630   1.084       .  S
C1627      C1628   1.409       .  A
C1627      C2162   1.467       .  S
C1628      H2287   1.084       .  S
H1631      C2284   1.084       .  S
C1632      C1633   1.401       .  A
C1632      C1637   1.399       .  A
C1633      C1634   1.401       .  A
C1633      H1638   1.084       .  S
C1634      C1635   1.399       .  A
C1635      C1636   1.399       .  A
C1635      H1639   1.084       .  S
C1636      C1637   1.398       .  A
C1637      H1640   1.084       .  S
C1641      C2298   1.408       .  A
C1641      C1646   1.408       .  A
C1641      C1752   1.485       .  S
C1642      C2297   1.408   1_545  A
C1642      H1647   1.084       .  S
C1643      C1644   1.406       .  A
C1643      C1793   1.484       .  S
C1644      C2301   1.407   1_545  A
C1644      H1648   1.084       .  S
C1645      C2300   1.407       .  A
C1645      C1688   1.483       .  S
C1646      H1649   1.084       .  S
C1650      C1651   1.401       .  A
C1650      C1655   1.399       .  A
C1650      C1669   1.463       .  S
C1651      C1652   1.401       .  A
C1651      H1656   1.084       .  S
C1652      C1653   1.399       .  A
C1652      C1774   1.464       .  S
C1653      C1654   1.398       .  A
C1653      H1657   1.084       .  S
C1654      C1655   1.399       .  A
C1654      C1733   1.461       .  S
C1655      H1658   1.084       .  S
C1659      C1660   1.402       .  A
C1659      C1664   1.409       .  A
C1659      C1748   1.469       .  S
C1660      C1661   1.402       .  A
C1660      H1665   1.084       .  S
C1661      C1662   1.395       .  A
C1661      C1725   1.470       .  S
C1663      C1925   1.483       .  S
O1668      C1684   1.269       .  A
O1668     Zn1674   1.985       .  S
C1669      O1685   1.273       .  A
C1669      O1682   1.271       .  A
O1670      C1683   1.283       .  A
O1670     Cd1677   2.121       .  S
O1671      C1689   1.267       .  A
O1671     Cd1680   2.031       .  S
O1672      C1686   1.283       .  A
O1672     Cd1676   2.124       .  S
O1673      C1684   1.278       .  A
O1673     Cd1676   2.096       .  S
Zn1674     O1685   2.007       .  S
Zn1674     O1687   1.963       .  S
Zn1674     O1679   1.904       .  S
O1675      C1686   1.269       .  A
O1675     Cd1680   2.011       .  S
Cd1676     O1678   2.089       .  S
Cd1676     O1679   1.994       .  S
Cd1677     O1681   2.092       .  S
Cd1677     O1690   2.104       .  S
Cd1677     O1679   1.993       .  S
O1678      C1688   1.282       .  A
O1679     Cd1680   1.949       .  S
Cd1680     O1682   2.048       .  S
O1681      C1688   1.282       .  A
C1683      C1880   1.483       .  S
C1683      O1687   1.268       .  A
C1684      C2349   1.467       .  S
C1686      C1951   1.483       .  S
C1689      O1690   1.279       .  A
C1691      C1829   1.482       .  S
C1692      C1693   1.408       .  A
C1692      H2025   1.084       .  S
C1693      C1694   1.401       .  A
C1693      C2340   1.467   1_545  S
C1694      C1695   1.401       .  A
C1694      H1698   1.084       .  S
C1695      C1696   1.395       .  A
C1695      C1710   1.469       .  S
H1697      C2020   1.084       .  S
C1700      C1701   1.395       .  A
C1700      C1705   1.404       .  A
C1701      C1702   1.408       .  A
C1701      H1706   1.084       .  S
C1702      C1703   1.402       .  A
C1702      C1729   1.486       .  S
C1703      C1704   1.416       .  A
C1703      H1707   1.083       .  S
C1704      C1705   1.404       .  A
C1704      C1928   1.483       .  S
O1709      C1725   1.273       .  A
O1709     Zn1715   2.018       .  S
C1710      O1726   1.276       .  A
C1710      O1723   1.272       .  A
O1711      C1724   1.283       .  A
O1711     Cd1718   2.121       .  S
O1712      C1730   1.269       .  A
O1712     Cd1721   2.022       .  S
O1713      C1727   1.272       .  A
O1713     Cd1717   2.062       .  S
O1714      C1725   1.275       .  A
O1714     Cd1717   2.073       .  S
Zn1715     O1726   2.032       .  S
Zn1715     O1728   1.966       .  S
Zn1715     O1720   1.921       .  S
O1716      C1727   1.276       .  A
O1716     Cd1721   2.076       .  S
Cd1717     O1719   2.020       .  S
Cd1717     O1720   1.972       .  S
Cd1718     O1722   2.124       .  S
Cd1718     O1731   2.125       .  S
Cd1718     O1720   2.023       .  S
O1719      C1729   1.269       .  A
O1720     Cd1721   1.973       .  S
Cd1721     O1723   2.058       .  S
O1722      C1729   1.283       .  A
C1724      C1768   1.487       .  S
C1724      O1728   1.269       .  A
C1727      C1798   1.468       .  S
C1730      C1759   1.488       .  S
C1730      O1731   1.283       .  A
O1732      C1748   1.269       .  A
O1732     Zn1738   1.988       .  S
C1733      O1749   1.272       .  A
C1733      O1746   1.271       .  A
O1734      C1747   1.283       .  A
O1734     Cd1741   2.118       .  S
O1735      C1753   1.268       .  A
O1735     Cd1744   2.035       .  S
O1736      C1750   1.283       .  A
O1736     Cd1740   2.121       .  S
O1737      C1748   1.278       .  A
O1737     Cd1740   2.098       .  S
Zn1738     O1749   2.003       .  S
Zn1738     O1751   1.961       .  S
Zn1738     O1743   1.905       .  S
O1739      C1750   1.269       .  A
O1739     Cd1744   2.011       .  S
Cd1740     O1742   2.092       .  S
Cd1740     O1743   1.996       .  S
Cd1741     O1745   2.091       .  S
Cd1741     O1754   2.104       .  S
Cd1741     O1743   1.994       .  S
O1742      C1752   1.282       .  A
O1743     Cd1744   1.953       .  S
Cd1744     O1746   2.048       .  S
O1745      C1752   1.282       .  A
C1747      C1946   1.482       .  S
C1747      O1751   1.268       .  A
C1750      C1935   1.482       .  S
C1753      C2413   1.469       .  S
C1753      O1754   1.279       .  A
C1755      C1756   1.404       .  A
C1755      C1760   1.416       .  A
C1755      C1873   1.484       .  S
C1756      C1757   1.404       .  A
C1756      H2417   1.084       .  S
C1757      C1758   1.395       .  A
C1757      C2409   1.469   1_545  S
C1758      C1759   1.409       .  A
C1758      H1762   1.084       .  S
C1759      C1760   1.403       .  A
C1760      H1763   1.083       .  S
H1761      C2412   1.084       .  S
C1764      C1765   1.405       .  A
C1764      C1769   1.396       .  A
C1764      C1794   1.469       .  S
C1765      C1766   1.404       .  A
C1765      H1770   1.084       .  S
C1766      C1767   1.416       .  A
C1766      C1832   1.485       .  S
C1767      C1768   1.403       .  A
C1767      H1771   1.083       .  S
C1768      C1769   1.409       .  A
C1769      H1772   1.084       .  S
O1773      C1789   1.268       .  A
O1773     Zn1779   1.978       .  S
C1774      O1790   1.272       .  A
C1774      O1787   1.272       .  A
O1775      C1788   1.284       .  A
O1775     Cd1782   2.124       .  S
O1776      C1794   1.267       .  A
O1776     Cd1785   2.030       .  S
O1777      C1791   1.283       .  A
O1777     Cd1781   2.123       .  S
O1778      C1789   1.278       .  A
O1778     Cd1781   2.100       .  S
Zn1779     O1790   2.006       .  S
Zn1779     O1792   1.965       .  S
Zn1779     O1784   1.903       .  S
O1780      C1791   1.269       .  A
O1780     Cd1785   2.012       .  S
Cd1781     O1783   2.090       .  S
Cd1781     O1784   1.996       .  S
Cd1782     O1786   2.094       .  S
Cd1782     O1795   2.109       .  S
Cd1782     O1784   1.994       .  S
O1783      C1793   1.281       .  A
O1784     Cd1785   1.951       .  S
Cd1785     O1787   2.049       .  S
O1786      C1793   1.282       .  A
C1788      O1792   1.269       .  A
C1791      C1846   1.483       .  S
C1794      O1795   1.280       .  A
C1796      C1797   1.402       .  A
C1796      C1801   1.409       .  A
C1797      C1798   1.402       .  A
C1797      H1802   1.084       .  S
C1798      C1799   1.394       .  A
C1800      C1870   1.482       .  S
C1805      C1806   1.408       .  A
C1805      C1931   1.485       .  S
C1806      C2463   1.407       .  A
C1806      H1811   1.084       .  S
C1807      C2462   1.407   1_545  A
C1807      C1876   1.484       .  S
C1808      C1809   1.406       .  A
C1808      H1812   1.084       .  S
C1809      C2466   1.408   1_545  A
C1809      C1835   1.485       .  S
C1810      C2465   1.408       .  A
C1810      H1813   1.084       .  S
O1814      C1830   1.273       .  A
O1814     Zn1820   2.009       .  S
C1815      C1837   1.471       .  S
C1815      O1831   1.268       .  A
C1815      O1828   1.279       .  A
O1816      C1829   1.282       .  A
O1816     Cd1823   2.119       .  S
O1817      C1835   1.283       .  A
O1817     Cd1826   2.098       .  S
O1818      C1832   1.270       .  A
O1818     Cd1822   2.021       .  S
O1819      C1830   1.271       .  A
O1819     Cd1822   2.048       .  S
Zn1820     O1831   1.981       .  S
Zn1820     O1833   1.952       .  S
Zn1820     O1825   1.900       .  S
O1821      C1832   1.285       .  A
O1821     Cd1826   2.128       .  S
Cd1822     O1824   2.033       .  S
Cd1822     O1825   1.956       .  S
Cd1823     O1827   2.103       .  S
Cd1823     O1836   2.087       .  S
Cd1823     O1825   1.998       .  S
O1824      C1834   1.268       .  A
O1825     Cd1826   1.994       .  S
Cd1826     O1828   2.107       .  S
O1827      C1834   1.279       .  A
C1829      O1833   1.268       .  A
C1830      C1962   1.464       .  S
C1834      C2611   1.467   1_545  S
C1835      O1836   1.281       .  A
C1837      C1838   1.397       .  A
C1837      C1842   1.405       .  A
C1838      C1839   1.411       .  A
C1838      H1843   1.084       .  S
C1839      C1840   1.403       .  A
C1839      C1902   1.489       .  S
C1840      C1841   1.416       .  A
C1840      H1844   1.083       .  S
C1841      C1842   1.404       .  A
C1842      H1845   1.084       .  S
C1846      C1847   1.404       .  A
C1846      C1851   1.411       .  A
C1847      C1848   1.408       .  A
C1847      H1852   1.084       .  S
C1848      C1849   1.400       .  A
C1849      C1850   1.401       .  A
C1849      H1853   1.084       .  S
C1850      C1851   1.395       .  A
C1850      C1903   1.467       .  S
C1851      H1854   1.084       .  S
O1855      C1871   1.272       .  A
O1855     Zn1861   2.005       .  S
C1856      C2598   1.469   1_545  S
C1856      O1872   1.267       .  A
C1856      O1869   1.279       .  A
O1857      C1870   1.282       .  A
O1857     Cd1864   2.119       .  S
O1858      C1876   1.282       .  A
O1858     Cd1867   2.095       .  S
O1859      C1873   1.269       .  A
O1859     Cd1863   2.022       .  S
O1860      C1871   1.272       .  A
O1860     Cd1863   2.050       .  S
Zn1861     O1872   1.977       .  S
Zn1861     O1874   1.950       .  S
Zn1861     O1866   1.897       .  S
O1862      C1873   1.284       .  A
O1862     Cd1867   2.125       .  S
Cd1863     O1865   2.038       .  S
Cd1863     O1866   1.958       .  S
Cd1864     O1868   2.098       .  S
Cd1864     O1877   2.087       .  S
Cd1864     O1866   1.997       .  S
O1865      C1875   1.269       .  A
O1866     Cd1867   1.992       .  S
Cd1867     O1869   2.100       .  S
O1868      C1875   1.278       .  A
C1870      O1874   1.268       .  A
C1871      C1960   1.463       .  S
C1876      O1877   1.281       .  A
C1878      C1879   1.403       .  A
C1878      C1883   1.396       .  A
C1881      C1882   1.403       .  A
C1881      H1885   1.083       .  S
C1882      C1883   1.410       .  A
C1882      C1907   1.489       .  S
C1883      H1886   1.084       .  S
O1887      C1903   1.275       .  A
O1887     Zn1893   2.030       .  S
C1888      C1937   1.467       .  S
C1888      O1904   1.272       .  A
C1888      O1901   1.275       .  A
O1889      C1902   1.284       .  A
O1889     Cd1896   2.131       .  S
O1890      C1908   1.269       .  A
O1890     Cd1899   2.017       .  S
O1891      C1905   1.275       .  A
O1891     Cd1895   2.073       .  S
O1892      C1903   1.271       .  A
O1892     Cd1895   2.054       .  S
Zn1893     O1904   2.013       .  S
Zn1893     O1906   1.962       .  S
Zn1893     O1898   1.919       .  S
O1894      C1905   1.272       .  A
O1894     Cd1899   2.060       .  S
Cd1895     O1897   2.019       .  S
Cd1895     O1898   1.970       .  S
Cd1896     O1900   2.132       .  S
Cd1896     O1909   2.131       .  S
Cd1896     O1898   2.024       .  S
O1897      C1907   1.269       .  A
O1898     Cd1899   1.971       .  S
Cd1899     O1901   2.070       .  S
O1900      C1907   1.284       .  A
C1902      O1906   1.269       .  A
C1905      C1953   1.466       .  S
C1908      C1944   1.487       .  S
C1908      O1909   1.284       .  A
O1910      C1926   1.272       .  A
O1910     Zn1916   2.006       .  S
C1911      O1927   1.268       .  A
C1911      O1924   1.279       .  A
O1912      C1925   1.282       .  A
O1912     Cd1919   2.119       .  S
O1913      C1931   1.282       .  A
O1913     Cd1922   2.096       .  S
O1914      C1928   1.269       .  A
O1914     Cd1918   2.020       .  S
O1915      C1926   1.271       .  A
O1915     Cd1918   2.044       .  S
Zn1916     O1927   1.982       .  S
Zn1916     O1929   1.955       .  S
Zn1916     O1921   1.900       .  S
O1917      C1928   1.284       .  A
O1917     Cd1922   2.123       .  S
Cd1918     O1920   2.036       .  S
Cd1918     O1921   1.957       .  S
Cd1919     O1923   2.100       .  S
Cd1919     O1932   2.090       .  S
Cd1919     O1921   1.997       .  S
O1920      C1930   1.268       .  A
O1921     Cd1922   1.992       .  S
Cd1922     O1924   2.102       .  S
O1923      C1930   1.278       .  A
C1925      O1929   1.268       .  A
C1926      C1964   1.461       .  S
C1930      C1933   1.467       .  S
C1931      O1932   1.282       .  A
C1933      C1934   1.409       .  A
C1933      C1938   1.402       .  A
C1934      C1935   1.404       .  A
C1934      H1939   1.084       .  S
C1935      C1936   1.410       .  A
C1936      C1937   1.394       .  A
C1936      H1940   1.084       .  S
C1937      C1938   1.401       .  A
C1938      H1941   1.084       .  S
C1942      C1943   1.395       .  A
C1942      C1947   1.404       .  A
C1942      C2512   1.469       .  S
C1943      C1944   1.410       .  A
C1943      H1948   1.084       .  S
C1944      C1945   1.402       .  A
C1945      H1949   1.083       .  S
C1947      H2606   1.084       .  S
H1950      C2603   1.084       .  S
C1951      C1952   1.410       .  A
C1951      C1956   1.404       .  A
C1952      C1953   1.394       .  A
C1952      H1957   1.084       .  S
C1953      C1954   1.400       .  A
C1954      C1955   1.401       .  A
C1954      H1958   1.084       .  S
C1955      C1956   1.409       .  A
C1955      C2490   1.467       .  S
C1956      H2615   1.084       .  S
H1959      C2612   1.084       .  S
C1960      C1961   1.401       .  A
C1960      C1965   1.399       .  A
C1961      C1962   1.401       .  A
C1961      H1966   1.084       .  S
C1962      C1963   1.399       .  A
C1963      C1964   1.399       .  A
C1963      H1967   1.084       .  S
C1964      C1965   1.398       .  A
C1965      H1968   1.084       .  S
C1969      C1974   1.408       .  A
C1969      C2080   1.485       .  S
C1970      H1975   1.084       .  S
C1971      C1972   1.406       .  A
C1971      C2121   1.484       .  S
C1972      H1976   1.084       .  S
C1973      C2016   1.483       .  S
C1974      H1977   1.084       .  S
C1978      C1979   1.401       .  A
C1978      C1983   1.399       .  A
C1978      C1997   1.463       .  S
C1979      C1980   1.401       .  A
C1979      H1984   1.084       .  S
C1980      C1981   1.399       .  A
C1980      C2102   1.464       .  S
C1981      C1982   1.398       .  A
C1981      H1985   1.084       .  S
C1982      C1983   1.399       .  A
C1982      C2061   1.461       .  S
C1983      H1986   1.084       .  S
C1987      C1988   1.402       .  A
C1987      C1992   1.409       .  A
C1987      C2076   1.469       .  S
C1988      C1989   1.402       .  A
C1988      H1993   1.084       .  S
C1989      C1990   1.395       .  A
C1989      C2053   1.470       .  S
C1990      C2319   1.410   1_554  A
C1990      H2322   1.084   1_554  S
C1991      C2318   1.410       .  A
C1991      C2320   1.404       .  A
C1991      C2253   1.483       .  S
C1992      C2319   1.404   1_554  A
C1992      H2323   1.084       .  S
H1994      C2318   1.084       .  S
H1995      C2320   1.084       .  S
O1996      C2012   1.269       .  A
O1996     Zn2002   1.985       .  S
C1997      O2013   1.273       .  A
C1997      O2010   1.271       .  A
O1998      C2011   1.283       .  A
O1998     Cd2005   2.121       .  S
O1999      C2017   1.267       .  A
O1999     Cd2008   2.031       .  S
O2000      C2014   1.283       .  A
O2000     Cd2004   2.124       .  S
O2001      C2012   1.278       .  A
O2001     Cd2004   2.096       .  S
Zn2002     O2013   2.007       .  S
Zn2002     O2015   1.963       .  S
Zn2002     O2007   1.904       .  S
O2003      C2014   1.269       .  A
O2003     Cd2008   2.011       .  S
Cd2004     O2006   2.089       .  S
Cd2004     O2007   1.994       .  S
Cd2005     O2009   2.092       .  S
Cd2005     O2018   2.104       .  S
Cd2005     O2007   1.993       .  S
O2006      C2016   1.282       .  A
O2007     Cd2008   1.949       .  S
Cd2008     O2010   2.048       .  S
O2009      C2016   1.282       .  A
C2011      C2208   1.483   1_554  S
C2011      O2015   1.268       .  A
C2014      C2279   1.483       .  S
C2017      O2018   1.279       .  A
C2019      C2348   1.403       .  A
C2019      C2352   1.411       .  A
C2019      C2157   1.482       .  S
C2020      C2347   1.403   1_554  A
C2020      C2021   1.408       .  A
C2021      C2022   1.401       .  A
C2022      C2023   1.401       .  A
C2022      H2026   1.084       .  S
C2023      C2024   1.395       .  A
C2023      C2038   1.469       .  S
C2024      C2347   1.411   1_554  A
C2024      H2355   1.084   1_554  S
H2027      C2352   1.084       .  S
C2028      C2029   1.395       .  A
C2028      C2033   1.404       .  A
C2029      C2030   1.408       .  A
C2029      H2034   1.084       .  S
C2030      C2031   1.402       .  A
C2030      C2057   1.486       .  S
C2031      C2032   1.416       .  A
C2031      H2035   1.083       .  S
C2032      C2033   1.404       .  A
C2032      C2256   1.483       .  S
O2037      C2053   1.273       .  A
O2037     Zn2043   2.018       .  S
C2038      O2054   1.276       .  A
C2038      O2051   1.272       .  A
O2039      C2052   1.283       .  A
O2039     Cd2046   2.121       .  S
O2040      C2058   1.269       .  A
O2040     Cd2049   2.022       .  S
O2041      C2055   1.272       .  A
O2041     Cd2045   2.062       .  S
O2042      C2053   1.275       .  A
O2042     Cd2045   2.073       .  S
Zn2043     O2054   2.032       .  S
Zn2043     O2056   1.966       .  S
Zn2043     O2048   1.921       .  S
O2044      C2055   1.276       .  A
O2044     Cd2049   2.076       .  S
Cd2045     O2047   2.020       .  S
Cd2045     O2048   1.972       .  S
Cd2046     O2050   2.124       .  S
Cd2046     O2059   2.125       .  S
Cd2046     O2048   2.023       .  S
O2047      C2057   1.269       .  A
O2048     Cd2049   1.973       .  S
Cd2049     O2051   2.058       .  S
O2050      C2057   1.283       .  A
C2052      C2096   1.487       .  S
C2052      O2056   1.269       .  A
C2055      C2126   1.468       .  S
C2058      C2087   1.488       .  S
C2058      O2059   1.283       .  A
O2060      C2076   1.269       .  A
O2060     Zn2066   1.988       .  S
C2061      O2077   1.272       .  A
C2061      O2074   1.271       .  A
O2062      C2075   1.283       .  A
O2062     Cd2069   2.118       .  S
O2063      C2081   1.268       .  A
O2063     Cd2072   2.035       .  S
O2064      C2078   1.283       .  A
O2064     Cd2068   2.121       .  S
O2065      C2076   1.278       .  A
O2065     Cd2068   2.098       .  S
Zn2066     O2077   2.003       .  S
Zn2066     O2079   1.961       .  S
Zn2066     O2071   1.905       .  S
O2067      C2078   1.269       .  A
O2067     Cd2072   2.011       .  S
Cd2068     O2070   2.092       .  S
Cd2068     O2071   1.996       .  S
Cd2069     O2073   2.091       .  S
Cd2069     O2082   2.104       .  S
Cd2069     O2071   1.994       .  S
O2070      C2080   1.282       .  A
O2071     Cd2072   1.953       .  S
Cd2072     O2074   2.048       .  S
O2073      C2080   1.282       .  A
C2075      C2274   1.482   1_554  S
C2075      O2079   1.268       .  A
C2078      C2263   1.482       .  S
C2081      O2082   1.279       .  A
C2083      C2084   1.404       .  A
C2083      C2088   1.416       .  A
C2083      C2201   1.484       .  S
C2084      C2085   1.404       .  A
C2085      C2086   1.395       .  A
C2086      C2087   1.409       .  A
C2086      H2090   1.084       .  S
C2087      C2088   1.403       .  A
C2088      H2091   1.083       .  S
C2092      C2093   1.405       .  A
C2092      C2097   1.396       .  A
C2092      C2122   1.469       .  S
C2093      C2094   1.404       .  A
C2093      H2098   1.084       .  S
C2094      C2095   1.416       .  A
C2094      C2160   1.485       .  S
C2095      C2096   1.403       .  A
C2095      H2099   1.083       .  S
C2096      C2097   1.409       .  A
C2097      H2100   1.084       .  S
O2101      C2117   1.268       .  A
O2101     Zn2107   1.978       .  S
C2102      O2118   1.272       .  A
C2102      O2115   1.272       .  A
O2103      C2116   1.284       .  A
O2103     Cd2110   2.125       .  S
O2104      C2122   1.267       .  A
O2104     Cd2113   2.030       .  S
O2105      C2119   1.283       .  A
O2105     Cd2109   2.123       .  S
O2106      C2117   1.278       .  A
O2106     Cd2109   2.100       .  S
Zn2107     O2118   2.006       .  S
Zn2107     O2120   1.965       .  S
Zn2107     O2112   1.903       .  S
O2108      C2119   1.269       .  A
O2108     Cd2113   2.012       .  S
Cd2109     O2111   2.090       .  S
Cd2109     O2112   1.996       .  S
Cd2110     O2114   2.094       .  S
Cd2110     O2123   2.109       .  S
Cd2110     O2112   1.994       .  S
O2111      C2121   1.281       .  A
O2112     Cd2113   1.951       .  S
Cd2113     O2115   2.049       .  S
O2114      C2121   1.282       .  A
C2116      C2497   1.485   1_554  S
C2116      O2120   1.269       .  A
C2119      C2174   1.483       .  S
C2122      O2123   1.280       .  A
C2124      C2125   1.402       .  A
C2124      C2129   1.409       .  A
C2125      C2126   1.402       .  A
C2125      H2130   1.084       .  S
C2126      C2127   1.394       .  A
C2127      C2456   1.410   1_554  A
C2127      H2459   1.084   1_554  S
C2128      C2455   1.410       .  A
C2128      C2457   1.403       .  A
C2128      C2198   1.482       .  S
C2129      C2456   1.403   1_554  A
H2131      C2455   1.084       .  S
C2133      C2134   1.408       .  A
C2133      C2259   1.485       .  S
C2134      H2139   1.084       .  S
C2135      C2204   1.484       .  S
C2136      C2137   1.406       .  A
C2136      H2140   1.084       .  S
C2137      C2163   1.485       .  S
C2138      H2141   1.084       .  S
O2142      C2158   1.273       .  A
O2142     Zn2148   2.009       .  S
C2143      C2165   1.471       .  S
C2143      O2159   1.268       .  A
C2143      O2156   1.279       .  A
O2144      C2157   1.282       .  A
O2144     Cd2151   2.119       .  S
O2145      C2163   1.283       .  A
O2145     Cd2154   2.098       .  S
O2146      C2160   1.270       .  A
O2146     Cd2150   2.021       .  S
O2147      C2158   1.271       .  A
O2147     Cd2150   2.048       .  S
Zn2148     O2159   1.981       .  S
Zn2148     O2161   1.952       .  S
Zn2148     O2153   1.900       .  S
O2149      C2160   1.285       .  A
O2149     Cd2154   2.128       .  S
Cd2150     O2152   2.033       .  S
Cd2150     O2153   1.956       .  S
Cd2151     O2155   2.103       .  S
Cd2151     O2164   2.087       .  S
Cd2151     O2153   1.998       .  S
O2152      C2162   1.268       .  A
O2153     Cd2154   1.994       .  S
Cd2154     O2156   2.107       .  S
O2155      C2162   1.279       .  A
C2157      O2161   1.268       .  A
C2158      C2290   1.464       .  S
C2163      O2164   1.281       .  A
C2165      C2166   1.397       .  A
C2165      C2170   1.405       .  A
C2166      C2167   1.411       .  A
C2166      H2171   1.084       .  S
C2167      C2168   1.403       .  A
C2167      C2230   1.489       .  S
C2168      C2169   1.416       .  A
C2168      H2172   1.083       .  S
C2169      C2170   1.404       .  A
C2169      C2444   1.485       .  S
C2170      H2173   1.084       .  S
C2174      C2175   1.404       .  A
C2174      C2179   1.411       .  A
C2175      C2176   1.408       .  A
C2175      H2180   1.084       .  S
C2176      C2177   1.400       .  A
C2177      C2178   1.401       .  A
C2177      H2181   1.084       .  S
C2178      C2179   1.395       .  A
C2178      C2231   1.467       .  S
C2179      H2182   1.084       .  S
O2183      C2199   1.272       .  A
O2183     Zn2189   2.005       .  S
C2184      O2200   1.267       .  A
C2184      O2197   1.279       .  A
O2185      C2198   1.282       .  A
O2185     Cd2192   2.119       .  S
O2186      C2204   1.282       .  A
O2186     Cd2195   2.095       .  S
O2187      C2201   1.269       .  A
O2187     Cd2191   2.022       .  S
O2188      C2199   1.272       .  A
O2188     Cd2191   2.050       .  S
Zn2189     O2200   1.977       .  S
Zn2189     O2202   1.950       .  S
Zn2189     O2194   1.897       .  S
O2190      C2201   1.284       .  A
O2190     Cd2195   2.125       .  S
Cd2191     O2193   2.038       .  S
Cd2191     O2194   1.958       .  S
Cd2192     O2196   2.098       .  S
Cd2192     O2205   2.087       .  S
Cd2192     O2194   1.997       .  S
O2193      C2203   1.269       .  A
O2194     Cd2195   1.992       .  S
Cd2195     O2197   2.100       .  S
O2196      C2203   1.278       .  A
C2198      O2202   1.268       .  A
C2199      C2288   1.463       .  S
C2204      O2205   1.281       .  A
C2206      C2207   1.403       .  A
C2206      C2211   1.396       .  A
C2207      C2536   1.403       .  A
C2208      C2535   1.403       .  A
C2208      C2537   1.416       .  A
C2209      C2536   1.416       .  A
C2209      C2210   1.403       .  A
C2209      H2213   1.083       .  S
C2210      C2211   1.410       .  A
C2210      C2235   1.489       .  S
C2211      H2214   1.084       .  S
O2215      C2231   1.275       .  A
O2215     Zn2221   2.030       .  S
C2216      C2265   1.467       .  S
C2216      O2232   1.272       .  A
C2216      O2229   1.275       .  A
O2217      C2230   1.284       .  A
O2217     Cd2224   2.131       .  S
O2218      C2236   1.269       .  A
O2218     Cd2227   2.017       .  S
O2219      C2233   1.275       .  A
O2219     Cd2223   2.073       .  S
O2220      C2231   1.271       .  A
O2220     Cd2223   2.054       .  S
Zn2221     O2232   2.013       .  S
Zn2221     O2234   1.962       .  S
Zn2221     O2226   1.919       .  S
O2222      C2233   1.272       .  A
O2222     Cd2227   2.060       .  S
Cd2223     O2225   2.019       .  S
Cd2223     O2226   1.970       .  S
Cd2224     O2228   2.132       .  S
Cd2224     O2237   2.131       .  S
Cd2224     O2226   2.024       .  S
O2225      C2235   1.269       .  A
O2226     Cd2227   1.971       .  S
Cd2227     O2229   2.070       .  S
O2228      C2235   1.284       .  A
C2230      O2234   1.269       .  A
C2233      C2281   1.466       .  S
C2236      C2272   1.487       .  S
C2236      O2237   1.284       .  A
O2238      C2254   1.272       .  A
O2238     Zn2244   2.006       .  S
C2239      O2255   1.268       .  A
C2239      O2252   1.279       .  A
O2240      C2253   1.282       .  A
O2240     Cd2247   2.119       .  S
O2241      C2259   1.282       .  A
O2241     Cd2250   2.096       .  S
O2242      C2256   1.269       .  A
O2242     Cd2246   2.020       .  S
O2243      C2254   1.271       .  A
O2243     Cd2246   2.044       .  S
Zn2244     O2255   1.982       .  S
Zn2244     O2257   1.955       .  S
Zn2244     O2249   1.900       .  S
O2245      C2256   1.284       .  A
O2245     Cd2250   2.123       .  S
Cd2246     O2248   2.036       .  S
Cd2246     O2249   1.957       .  S
Cd2247     O2251   2.100       .  S
Cd2247     O2260   2.090       .  S
Cd2247     O2249   1.997       .  S
O2248      C2258   1.268       .  A
O2249     Cd2250   1.992       .  S
Cd2250     O2252   2.102       .  S
O2251      C2258   1.278       .  A
C2253      O2257   1.268       .  A
C2254      C2292   1.461       .  S
C2258      C2261   1.467       .  S
C2259      O2260   1.282       .  A
C2261      C2262   1.409       .  A
C2261      C2266   1.402       .  A
C2262      C2263   1.404       .  A
C2262      H2267   1.084       .  S
C2263      C2264   1.410       .  A
C2264      C2265   1.394       .  A
C2264      H2268   1.084       .  S
C2265      C2266   1.401       .  A
C2266      H2269   1.084       .  S
C2270      C2271   1.395       .  A
C2270      C2275   1.404       .  A
C2271      C2272   1.410       .  A
C2271      H2276   1.084       .  S
C2272      C2273   1.402       .  A
C2273      C2602   1.416       .  A
C2273      H2277   1.083       .  S
C2274      C2601   1.416       .  A
C2274      C2603   1.403       .  A
C2275      C2602   1.403       .  A
C2279      C2280   1.410       .  A
C2279      C2284   1.404       .  A
C2280      C2281   1.394       .  A
C2280      H2285   1.084       .  S
C2281      C2282   1.400       .  A
C2282      C2283   1.401       .  A
C2282      H2286   1.084       .  S
C2283      C2284   1.409       .  A
C2288      C2289   1.401       .  A
C2288      C2293   1.399       .  A
C2289      C2290   1.401       .  A
C2289      H2294   1.084       .  S
C2290      C2291   1.399       .  A
C2291      C2292   1.399       .  A
C2291      H2295   1.084       .  S
C2292      C2293   1.398       .  A
C2293      H2296   1.084       .  S
C2297      C2302   1.408       .  A
C2297      C2408   1.485       .  S
C2298      H2303   1.084       .  S
C2299      C2300   1.406       .  A
C2299      C2449   1.484       .  S
C2300      H2304   1.084       .  S
C2301      C2344   1.483       .  S
C2302      H2305   1.084       .  S
C2306      C2307   1.401       .  A
C2306      C2311   1.399       .  A
C2306      C2325   1.463       .  S
C2307      C2308   1.401       .  A
C2307      H2312   1.084       .  S
C2308      C2309   1.399       .  A
C2308      C2430   1.464       .  S
C2309      C2310   1.398       .  A
C2309      H2313   1.084       .  S
C2310      C2311   1.399       .  A
C2310      C2389   1.461       .  S
C2311      H2314   1.084       .  S
C2315      C2316   1.402       .  A
C2315      C2320   1.409       .  A
C2315      C2404   1.469       .  S
C2316      C2317   1.402       .  A
C2316      H2321   1.084       .  S
C2317      C2318   1.395       .  A
C2317      C2381   1.470       .  S
C2319      C2581   1.483       .  S
O2324      C2340   1.269       .  A
O2324     Zn2330   1.985       .  S
C2325      O2341   1.273       .  A
C2325      O2338   1.271       .  A
O2326      C2339   1.283       .  A
O2326     Cd2333   2.121       .  S
O2327      C2345   1.267       .  A
O2327     Cd2336   2.031       .  S
O2328      C2342   1.283       .  A
O2328     Cd2332   2.124       .  S
O2329      C2340   1.278       .  A
O2329     Cd2332   2.096       .  S
Zn2330     O2341   2.007       .  S
Zn2330     O2343   1.963       .  S
Zn2330     O2335   1.904       .  S
O2331      C2342   1.269       .  A
O2331     Cd2336   2.011       .  S
Cd2332     O2334   2.089       .  S
Cd2332     O2335   1.994       .  S
Cd2333     O2337   2.092       .  S
Cd2333     O2346   2.104       .  S
Cd2333     O2335   1.993       .  S
O2334      C2344   1.282       .  A
O2335     Cd2336   1.949       .  S
Cd2336     O2338   2.048       .  S
O2337      C2344   1.282       .  A
C2339      C2536   1.483       .  S
C2339      O2343   1.268       .  A
C2342      C2607   1.483       .  S
C2345      O2346   1.279       .  A
C2347      C2485   1.482       .  S
C2348      C2349   1.408       .  A
C2349      C2350   1.401       .  A
C2350      C2351   1.401       .  A
C2350      H2354   1.084       .  S
C2351      C2352   1.395       .  A
C2351      C2366   1.469       .  S
C2356      C2357   1.395       .  A
C2356      C2361   1.404       .  A
C2357      C2358   1.408       .  A
C2357      H2362   1.084       .  S
C2358      C2359   1.402       .  A
C2358      C2385   1.486       .  S
C2359      C2360   1.416       .  A
C2359      H2363   1.083       .  S
C2360      C2361   1.404       .  A
C2360      C2584   1.483       .  S
O2365      C2381   1.273       .  A
O2365     Zn2371   2.018       .  S
C2366      O2382   1.276       .  A
C2366      O2379   1.272       .  A
O2367      C2380   1.283       .  A
O2367     Cd2374   2.121       .  S
O2368      C2386   1.269       .  A
O2368     Cd2377   2.022       .  S
O2369      C2383   1.272       .  A
O2369     Cd2373   2.062       .  S
O2370      C2381   1.275       .  A
O2370     Cd2373   2.073       .  S
Zn2371     O2382   2.032       .  S
Zn2371     O2384   1.966       .  S
Zn2371     O2376   1.921       .  S
O2372      C2383   1.276       .  A
O2372     Cd2377   2.076       .  S
Cd2373     O2375   2.020       .  S
Cd2373     O2376   1.972       .  S
Cd2374     O2378   2.124       .  S
Cd2374     O2387   2.125       .  S
Cd2374     O2376   2.023       .  S
O2375      C2385   1.269       .  A
O2376     Cd2377   1.973       .  S
Cd2377     O2379   2.058       .  S
O2378      C2385   1.283       .  A
C2380      C2424   1.487       .  S
C2380      O2384   1.269       .  A
C2383      C2454   1.468       .  S
C2386      C2415   1.488       .  S
C2386      O2387   1.283       .  A
O2388      C2404   1.269       .  A
O2388     Zn2394   1.988       .  S
C2389      O2405   1.272       .  A
C2389      O2402   1.271       .  A
O2390      C2403   1.283       .  A
O2390     Cd2397   2.118       .  S
O2391      C2409   1.268       .  A
O2391     Cd2400   2.035       .  S
O2392      C2406   1.283       .  A
O2392     Cd2396   2.121       .  S
O2393      C2404   1.278       .  A
O2393     Cd2396   2.098       .  S
Zn2394     O2405   2.003       .  S
Zn2394     O2407   1.961       .  S
Zn2394     O2399   1.905       .  S
O2395      C2406   1.269       .  A
O2395     Cd2400   2.011       .  S
Cd2396     O2398   2.092       .  S
Cd2396     O2399   1.996       .  S
Cd2397     O2401   2.091       .  S
Cd2397     O2410   2.104       .  S
Cd2397     O2399   1.994       .  S
O2398      C2408   1.282       .  A
O2399     Cd2400   1.953       .  S
Cd2400     O2402   2.048       .  S
O2401      C2408   1.282       .  A
C2403      C2602   1.482       .  S
C2403      O2407   1.268       .  A
C2406      C2591   1.482       .  S
C2409      O2410   1.279       .  A
C2411      C2412   1.404       .  A
C2411      C2416   1.416       .  A
C2411      C2529   1.484       .  S
C2412      C2413   1.404       .  A
C2413      C2414   1.395       .  A
C2414      C2415   1.409       .  A
C2414      H2418   1.084       .  S
C2415      C2416   1.403       .  A
C2416      H2419   1.083       .  S
C2420      C2421   1.405       .  A
C2420      C2425   1.396       .  A
C2420      C2450   1.469       .  S
C2421      C2422   1.404       .  A
C2421      H2426   1.084       .  S
C2422      C2423   1.416       .  A
C2422      C2488   1.485       .  S
C2423      C2424   1.403       .  A
C2423      H2427   1.083       .  S
C2424      C2425   1.409       .  A
C2425      H2428   1.084       .  S
O2429      C2445   1.268       .  A
O2429     Zn2435   1.978       .  S
C2430      O2446   1.272       .  A
C2430      O2443   1.272       .  A
O2431      C2444   1.284       .  A
O2431     Cd2438   2.124       .  S
O2432      C2450   1.267       .  A
O2432     Cd2441   2.030       .  S
O2433      C2447   1.283       .  A
O2433     Cd2437   2.123       .  S
O2434      C2445   1.278       .  A
O2434     Cd2437   2.100       .  S
Zn2435     O2446   2.006       .  S
Zn2435     O2448   1.965       .  S
Zn2435     O2440   1.903       .  S
O2436      C2447   1.269       .  A
O2436     Cd2441   2.012       .  S
Cd2437     O2439   2.090       .  S
Cd2437     O2440   1.996       .  S
Cd2438     O2442   2.094       .  S
Cd2438     O2451   2.109       .  S
Cd2438     O2440   1.994       .  S
O2439      C2449   1.281       .  A
O2440     Cd2441   1.951       .  S
Cd2441     O2443   2.049       .  S
O2442      C2449   1.282       .  A
C2444      O2448   1.269       .  A
C2447      C2502   1.483       .  S
C2450      O2451   1.280       .  A
C2452      C2453   1.402       .  A
C2452      C2457   1.409       .  A
C2453      C2454   1.402       .  A
C2453      H2458   1.084       .  S
C2454      C2455   1.394       .  A
C2456      C2526   1.482       .  S
C2461      C2462   1.408       .  A
C2461      C2587   1.485       .  S
C2462      H2467   1.084       .  S
C2463      C2532   1.484       .  S
C2464      C2465   1.406       .  A
C2464      H2468   1.084       .  S
C2465      C2491   1.485       .  S
C2466      H2469   1.084       .  S
O2470      C2486   1.273       .  A
O2470     Zn2476   2.009       .  S
C2471      C2493   1.471       .  S
C2471      O2487   1.268       .  A
C2471      O2484   1.279       .  A
O2472      C2485   1.282       .  A
O2472     Cd2479   2.119       .  S
O2473      C2491   1.283       .  A
O2473     Cd2482   2.098       .  S
O2474      C2488   1.270       .  A
O2474     Cd2478   2.021       .  S
O2475      C2486   1.271       .  A
O2475     Cd2478   2.048       .  S
Zn2476     O2487   1.981       .  S
Zn2476     O2489   1.952       .  S
Zn2476     O2481   1.900       .  S
O2477      C2488   1.285       .  A
O2477     Cd2482   2.128       .  S
Cd2478     O2480   2.033       .  S
Cd2478     O2481   1.956       .  S
Cd2479     O2483   2.103       .  S
Cd2479     O2492   2.087       .  S
Cd2479     O2481   1.998       .  S
O2480      C2490   1.268       .  A
O2481     Cd2482   1.994       .  S
Cd2482     O2484   2.107       .  S
O2483      C2490   1.279       .  A
C2485      O2489   1.268       .  A
C2486      C2618   1.464       .  S
C2491      O2492   1.281       .  A
C2493      C2494   1.397       .  A
C2493      C2498   1.405       .  A
C2494      C2495   1.411       .  A
C2494      H2499   1.084       .  S
C2495      C2496   1.403       .  A
C2495      C2558   1.489       .  S
C2496      C2497   1.416       .  A
C2496      H2500   1.083       .  S
C2497      C2498   1.404       .  A
C2498      H2501   1.084       .  S
C2502      C2503   1.404       .  A
C2502      C2507   1.411       .  A
C2503      C2504   1.408       .  A
C2503      H2508   1.084       .  S
C2504      C2505   1.400       .  A
C2505      C2506   1.401       .  A
C2505      H2509   1.084       .  S
C2506      C2507   1.395       .  A
C2506      C2559   1.467       .  S
C2507      H2510   1.084       .  S
O2511      C2527   1.272       .  A
O2511     Zn2517   2.005       .  S
C2512      O2528   1.267       .  A
C2512      O2525   1.279       .  A
O2513      C2526   1.282       .  A
O2513     Cd2520   2.119       .  S
O2514      C2532   1.282       .  A
O2514     Cd2523   2.095       .  S
O2515      C2529   1.269       .  A
O2515     Cd2519   2.022       .  S
O2516      C2527   1.272       .  A
O2516     Cd2519   2.050       .  S
Zn2517     O2528   1.977       .  S
Zn2517     O2530   1.950       .  S
Zn2517     O2522   1.897       .  S
O2518      C2529   1.284       .  A
O2518     Cd2523   2.125       .  S
Cd2519     O2521   2.038       .  S
Cd2519     O2522   1.958       .  S
Cd2520     O2524   2.098       .  S
Cd2520     O2533   2.087       .  S
Cd2520     O2522   1.997       .  S
O2521      C2531   1.269       .  A
O2522     Cd2523   1.992       .  S
Cd2523     O2525   2.100       .  S
O2524      C2531   1.278       .  A
C2526      O2530   1.268       .  A
C2527      C2616   1.463       .  S
C2532      O2533   1.281       .  A
C2534      C2535   1.403       .  A
C2534      C2539   1.396       .  A
C2537      C2538   1.403       .  A
C2537      H2541   1.083       .  S
C2538      C2539   1.410       .  A
C2538      C2563   1.489       .  S
C2539      H2542   1.084       .  S
O2543      C2559   1.275       .  A
O2543     Zn2549   2.030       .  S
C2544      C2593   1.467       .  S
C2544      O2560   1.272       .  A
C2544      O2557   1.275       .  A
O2545      C2558   1.284       .  A
O2545     Cd2552   2.131       .  S
O2546      C2564   1.269       .  A
O2546     Cd2555   2.017       .  S
O2547      C2561   1.275       .  A
O2547     Cd2551   2.073       .  S
O2548      C2559   1.271       .  A
O2548     Cd2551   2.054       .  S
Zn2549     O2560   2.013       .  S
Zn2549     O2562   1.962       .  S
Zn2549     O2554   1.919       .  S
O2550      C2561   1.272       .  A
O2550     Cd2555   2.060       .  S
Cd2551     O2553   2.019       .  S
Cd2551     O2554   1.970       .  S
Cd2552     O2556   2.132       .  S
Cd2552     O2565   2.131       .  S
Cd2552     O2554   2.024       .  S
O2553      C2563   1.269       .  A
O2554     Cd2555   1.971       .  S
Cd2555     O2557   2.070       .  S
O2556      C2563   1.284       .  A
C2558      O2562   1.269       .  A
C2561      C2609   1.466       .  S
C2564      C2600   1.487       .  S
C2564      O2565   1.284       .  A
O2566      C2582   1.272       .  A
O2566     Zn2572   2.006       .  S
C2567      O2583   1.268       .  A
C2567      O2580   1.279       .  A
O2568      C2581   1.282       .  A
O2568     Cd2575   2.119       .  S
O2569      C2587   1.282       .  A
O2569     Cd2578   2.096       .  S
O2570      C2584   1.269       .  A
O2570     Cd2574   2.020       .  S
O2571      C2582   1.271       .  A
O2571     Cd2574   2.044       .  S
Zn2572     O2583   1.982       .  S
Zn2572     O2585   1.955       .  S
Zn2572     O2577   1.900       .  S
O2573      C2584   1.284       .  A
O2573     Cd2578   2.123       .  S
Cd2574     O2576   2.036       .  S
Cd2574     O2577   1.957       .  S
Cd2575     O2579   2.100       .  S
Cd2575     O2588   2.090       .  S
Cd2575     O2577   1.997       .  S
O2576      C2586   1.268       .  A
O2577     Cd2578   1.992       .  S
Cd2578     O2580   2.102       .  S
O2579      C2586   1.278       .  A
C2581      O2585   1.268       .  A
C2582      C2620   1.461       .  S
C2586      C2589   1.467       .  S
C2587      O2588   1.282       .  A
C2589      C2590   1.409       .  A
C2589      C2594   1.402       .  A
C2590      C2591   1.404       .  A
C2590      H2595   1.084       .  S
C2591      C2592   1.410       .  A
C2592      C2593   1.394       .  A
C2592      H2596   1.084       .  S
C2593      C2594   1.401       .  A
C2594      H2597   1.084       .  S
C2598      C2599   1.395       .  A
C2598      C2603   1.404       .  A
C2599      C2600   1.410       .  A
C2599      H2604   1.084       .  S
C2600      C2601   1.402       .  A
C2601      H2605   1.083       .  S
C2607      C2608   1.410       .  A
C2607      C2612   1.404       .  A
C2608      C2609   1.394       .  A
C2608      H2613   1.084       .  S
C2609      C2610   1.400       .  A
C2610      C2611   1.401       .  A
C2610      H2614   1.084       .  S
C2611      C2612   1.409       .  A
C2616      C2617   1.401       .  A
C2616      C2621   1.399       .  A
C2617      C2618   1.401       .  A
C2617      H2622   1.084       .  S
C2618      C2619   1.399       .  A
C2619      C2620   1.399       .  A
C2619      H2623   1.084       .  S
C2620      C2621   1.398       .  A
C2621      H2624   1.084       .  S
