geometry optimzed in LAMMPS
_audit_creation_date              2020-11-30 
_audit_creation_method            'lammps2cif' 
_symmetry_space_group_name_H-M    'P1' 
_symmetry_Int_Tables_number       1 
_symmetry_cell_setting            triclinic 
loop_ 
_symmetry_equiv_pos_as_xyz 
  x,y,z 
_cell_length_a                    43.69761447 
_cell_length_b                    43.67676269290035 
_cell_length_c                    32.650649359401854 
_cell_angle_alpha                 90.1354580572239 
_cell_angle_beta                  90.04970211497186 
_cell_angle_gamma                 119.820993751978 
loop_ 
_atom_site_label 
_atom_site_type_symbol 
_atom_site_fract_x 
_atom_site_fract_y 
_atom_site_fract_z 
_atom_site_charge 
O1          O  0.46837661  0.45102988  0.33002050    -0.74400
O2          O  0.05677081  0.03794994  0.33616703    -0.74400
O3          O  0.00905890  0.49292504  0.39131416    -0.74400
O4          O  0.01588181  0.49594367  0.27449799    -0.74500
O5          O  0.48737932  0.02619796  0.27193213    -0.74400
O6          O  0.48052396  0.02313390  0.38941505    -0.74400
O7          O  0.02840141  0.06833484  0.33385926    -0.74400
O8          O  0.43965857  0.48122723  0.32727355    -0.74400
Ni9        Ni  0.01353210  0.49343873  0.33304900     1.25400
Ni10       Ni  0.48298483  0.02584819  0.33052961     1.25400
C11         C  0.43946983  0.45177565  0.32800260     0.87800
C12         C  0.05737389  0.06757841  0.33600917     0.87800
C13         C  0.49318270  0.50694058  0.40987177     0.87800
C14         C  0.00305387  0.51182339  0.25374060     0.87900
O15         O  0.46456335  0.17996087  0.33640416    -0.74400
O16         O  0.05227889  0.26770811  0.33686048    -0.74400
O17         O  0.00787562  0.22452094  0.39526229    -0.74400
O18         O  0.00896207  0.22342079  0.27796890    -0.74500
O19         O  0.47972527  0.25312856  0.27686371    -0.74400
O20         O  0.47873685  0.25415471  0.39394531    -0.74400
O21         O  0.02297510  0.29724149  0.33569659    -0.74400
O22         O  0.43517749  0.20942270  0.33532682    -0.74400
Ni23       Ni  0.00942444  0.22281671  0.33667396     1.25400
Ni24       Ni  0.47804201  0.25445675  0.33538436     1.25400
C25         C  0.43530489  0.18013601  0.33608317     0.87800
C26         C  0.05218330  0.29703435  0.33663261     0.87800
C27         C  0.99371478  0.24007137  0.41408263     0.87800
C28         C  0.99468988  0.23833307  0.25811645     0.87900
O29         O  0.27547066  0.04484743  0.33053476    -0.74400
O30         O  0.18762753  0.45683330  0.33141171    -0.74400
O31         O  0.23167865  0.00218619  0.38935872    -0.74400
O32         O  0.23170113  0.99987240  0.27224402    -0.74500
O33         O  0.26114065  0.47067867  0.27353700    -0.74400
O34         O  0.26128668  0.47291649  0.39094035    -0.74400
O35         O  0.21720933  0.42761587  0.33272266    -0.74400
O36         O  0.30480970  0.01536248  0.33185048    -0.74400
Ni37       Ni  0.23050274  0.00190588  0.33080070     1.25400
Ni38       Ni  0.26206790  0.47052920  0.33229384     1.25400
C39         C  0.30473531  0.04463366  0.33114243     0.87800
C40         C  0.18787843  0.42756959  0.33204800     0.87800
C41         C  0.24693947  0.98845388  0.40950047     0.87800
C42         C  0.24678381  0.98525058  0.25323383     0.87900
O43         O  0.26269749  0.24439212  0.27522794    -0.74400
O44         O  0.26607720  0.24478629  0.39222409    -0.74400
O45         O  0.21970359  0.20084222  0.33474854    -0.74400
O46         O  0.30851209  0.28846460  0.33274950    -0.74500
O47         O  0.27947320  0.31839819  0.33366483    -0.74400
O48         O  0.19128112  0.23121094  0.33667879    -0.74400
O49         O  0.23752923  0.27511444  0.39411722    -0.74400
O50         O  0.23358459  0.27407443  0.27654187    -0.74400
Ni51       Ni  0.26525456  0.24353815  0.33366028     1.25400
Ni52       Ni  0.23444813  0.27575291  0.33537709     1.25400
C53         C  0.24775967  0.25917252  0.25636986     0.87800
C54         C  0.25234098  0.25999349  0.41256192     0.87800
C55         C  0.19067772  0.20160724  0.33556971     0.87800
C56         C  0.30850505  0.31785571  0.33291130     0.87900
O57         O  0.03591325  0.47528137  0.99778902    -0.74400
O58         O  0.44845406  0.47597339  0.00086579    -0.74400
O59         O  0.48941158  0.47346692  0.94064683    -0.74400
O60         O  0.49448778  0.47773423  0.05788097    -0.74500
O61         O  0.02416579  0.03639644  0.05553733    -0.74400
O62         O  0.01870169  0.03204291  0.93828583    -0.74400
O63         O  0.47797513  0.03472161  0.99896253    -0.74400
O64         O  0.06523232  0.03383304  0.99495596    -0.74400
Ni65       Ni  0.49109277  0.47352629  0.99937585     1.27800
Ni66       Ni  0.02262886  0.03632305  0.99680068     1.25400
C67         C  0.06519730  0.50454361  0.99651214     0.87800
C68         C  0.44882612  0.50550184  0.00053096     0.87800
C69         C  0.50231860  0.50215843  0.92002092     0.87800
C70         C  0.51006771  0.50767257  0.07614090     0.87900
O71         O  0.05673806  0.27801403  0.00111027    -0.74400
O72         O  0.46750212  0.27502254  0.00363201    -0.74400
O73         O  0.01308506  0.27642773  0.06109620    -0.74400
O74         O  0.01125996  0.27677754  0.94410161    -0.74500
O75         O  0.48366208  0.21801969  0.94357447    -0.74400
O76         O  0.48486096  0.21791628  0.06072354    -0.74400
O77         O  0.43972817  0.21641919  0.00260650    -0.74400
O78         O  0.02878230  0.21934798  0.00118878    -0.74400
Ni79       Ni  0.01312879  0.27865293  0.00256974     1.25400
Ni80       Ni  0.48329562  0.21584580  0.00208341     1.25400
C81         C  0.05747282  0.24903277  0.00011300     0.87800
C82         C  0.43875145  0.24520478  0.00308132     0.87800
C83         C  0.99918751  0.24720842  0.08053566     0.87800
C84         C  0.99734744  0.24749961  0.92454100     0.87900
O85         O  0.22470188  0.02794667  0.99864725    -0.74400
O86         O  0.31334505  0.02960933  0.00191462    -0.74400
O87         O  0.27199263  0.03234205  0.94192991    -0.74400
O88         O  0.26603740  0.02550981  0.05875359    -0.74500
O89         O  0.23827200  0.46683528  0.05415156    -0.74400
O90         O  0.24342918  0.47383350  0.93719600    -0.74400
O91         O  0.28494329  0.47102748  0.99655960    -0.74400
O92         O  0.19646490  0.46946848  0.99466286    -0.74400
Ni93       Ni  0.27002676  0.03093374  0.00051065     1.25400
Ni94       Ni  0.23975686  0.46820874  0.99548246     1.25400
C95         C  0.19576338  0.99838675  0.99627854     0.87800
C96         C  0.31375684  0.00052988  0.99894885     0.87800
C97         C  0.25901276  0.00427047  0.92013272     0.87800
C98         C  0.25095003  0.99510197  0.07566858     0.87900
O99         O  0.22271102  0.28322788  0.99941738    -0.74400
O100        O  0.30880011  0.28031105  0.00125498    -0.74400
O101        O  0.26624472  0.28151369  0.94178012    -0.74400
O102        O  0.26521145  0.28212772  0.05905892    -0.74500
O103        O  0.23480856  0.22345469  0.05903241    -0.74400
O104        O  0.23591581  0.22263356  0.94172696    -0.74400
O105        O  0.27860449  0.22168788  0.00110470    -0.74400
O106        O  0.19220181  0.22456128  0.99945153    -0.74400
Ni107      Ni  0.26684163  0.28386036  0.00038975     1.25400
Ni108      Ni  0.23427380  0.22097299  0.00038239     1.25400
C109        C  0.19314851  0.25440520  0.99936651     0.87800
C110        C  0.30815332  0.25069752  0.00076327     0.87800
C111        C  0.25121826  0.25202851  0.92255011     0.87800
C112        C  0.24979141  0.25282238  0.07850587     0.87900
O113        O  0.01691670  0.46454089  0.66446650    -0.74400
O114        O  0.01477810  0.05156059  0.66738986    -0.74400
O115        O  0.01636532  0.00740651  0.72428430    -0.74400
O116        O  0.01631370  0.00929474  0.60743762    -0.74500
O117        O  0.45759595  0.47933576  0.60656388    -0.74400
O118        O  0.45751330  0.47689495  0.72453120    -0.74400
O119        O  0.45611790  0.02105800  0.66734929    -0.74400
O120        O  0.45826358  0.43471214  0.66402608    -0.74400
Ni121      Ni  0.01817423  0.00926083  0.66587709     1.25400
Ni122      Ni  0.45528406  0.47690546  0.66558221     1.25400
C123        C  0.48770623  0.43510377  0.66369386     0.87800
C124        C  0.48490931  0.05060198  0.66777831     0.87800
C125        C  0.48708841  0.99194916  0.74360414     0.87800
C126        C  0.98722003  0.99465131  0.58757648     0.87900
O127        O  0.01825736  0.21434589  0.67019251    -0.74400
O128        O  0.01996474  0.30287544  0.66945151    -0.74400
O129        O  0.01879481  0.25858590  0.72816460    -0.74400
O130        O  0.01940006  0.25854564  0.61118922    -0.74500
O131        O  0.46069353  0.23012609  0.61064592    -0.74400
O132        O  0.46020068  0.23063614  0.72780227    -0.74400
O133        O  0.46133331  0.27470384  0.66883254    -0.74400
O134        O  0.45957606  0.18598228  0.66993086    -0.74400
Ni135      Ni  0.02117097  0.25959906  0.66973978     1.25400
Ni136      Ni  0.45834217  0.22933981  0.66924528     1.25400
C137        C  0.48868793  0.18551320  0.67091411     0.87800
C138        C  0.49102602  0.30355608  0.66915349     0.87800
C139        C  0.48940091  0.24430583  0.74744867     0.87800
C140        C  0.49012486  0.24457833  0.59153224     0.87900
O141        O  0.23459204  0.03898131  0.66299402    -0.74400
O142        O  0.23201431  0.44944112  0.66623754    -0.74400
O143        O  0.23296221  0.49501635  0.72275720    -0.74400
O144        O  0.23246276  0.49232234  0.60624826    -0.74500
O145        O  0.29101458  0.02087725  0.60538935    -0.74400
O146        O  0.29161657  0.02231439  0.72329508    -0.74400
O147        O  0.29062327  0.47782527  0.66516192    -0.74400
O148        O  0.29325124  0.06647177  0.66370988    -0.74400
Ni149      Ni  0.23092217  0.49304302  0.66450740     1.25400
Ni150      Ni  0.29371006  0.02294998  0.66432897     1.25400
C151        C  0.26459435  0.06760471  0.66348136     0.87800
C152        C  0.26120396  0.44901575  0.66687979     0.87800
C153        C  0.26204814  0.00786770  0.74239562     0.87800
C154        C  0.26142998  0.00553733  0.58627807     0.87900
O155        O  0.23354433  0.19881392  0.66579150    -0.74400
O156        O  0.23004411  0.28464248  0.66922480    -0.74400
O157        O  0.23282460  0.24338563  0.60923491    -0.74400
O158        O  0.23059317  0.24006724  0.72614085    -0.74500
O159        O  0.28937363  0.27049561  0.72792796    -0.74400
O160        O  0.29135792  0.27450468  0.61028888    -0.74400
O161        O  0.28860959  0.31559542  0.67093063    -0.74400
O162        O  0.29225294  0.22948183  0.66700029    -0.74400
Ni163      Ni  0.22973269  0.24064147  0.66760086     1.25400
Ni164      Ni  0.29254363  0.27364642  0.66916967     1.25400
C165        C  0.26335605  0.19990058  0.66506657     0.87800
C166        C  0.25865668  0.31439055  0.66999533     0.87800
C167        C  0.26229536  0.25951422  0.59019831     0.87800
C168        C  0.25956460  0.25457602  0.74631514     0.87900
C169        C  0.23233892  0.38497561  0.65137606    -0.05700
C170        C  0.26091824  0.41477855  0.66918253     0.00200
C171        C  0.28802582  0.41103733  0.68868344    -0.08400
C172        C  0.28576962  0.37773454  0.68843497    -0.05700
C173        C  0.25750869  0.34801298  0.66997662     0.00200
C174        C  0.23006749  0.35163300  0.65115578    -0.08300
C175        C  0.19886686  0.32100826  0.62982729     0.62100
H176        H  0.21181518  0.38817370  0.63689979     0.12800
H177        H  0.30639513  0.37466090  0.70284713     0.12800
C178        C  0.31900392  0.44156863  0.71052855     0.62300
F179        F  0.17775453  0.33159555  0.60980113    -0.22800
F180        F  0.17809919  0.29583982  0.65833692    -0.20200
F181        F  0.21076403  0.30616600  0.60091952    -0.19800
F182        F  0.30683500  0.45729880  0.73790609    -0.19900
F183        F  0.34103425  0.46616132  0.68223328    -0.20200
F184        F  0.33893079  0.43056844  0.73243730    -0.22900
C185        C  0.24269308  0.10654972  0.63760196    -0.05700
C186        C  0.26616129  0.10244246  0.66330794     0.00200
C187        C  0.29032657  0.13145312  0.68785564    -0.08400
C188        C  0.28872400  0.16288241  0.68713576    -0.05700
C189        C  0.26438605  0.16646705  0.66250461     0.00200
C190        C  0.24202945  0.13843789  0.63586751    -0.08300
C191        C  0.21889221  0.14268095  0.60421803     0.62100
H192        H  0.22506705  0.08454937  0.61824214     0.12800
H193        H  0.30644368  0.18502003  0.70621242     0.12800
C194        C  0.31722352  0.12929172  0.71546061     0.62300
F195        F  0.20533047  0.11532492  0.57601468    -0.22800
F196        F  0.23851300  0.17383322  0.58289031    -0.20200
F197        F  0.19089652  0.14315067  0.62325899    -0.19800
F198        F  0.34207528  0.12662996  0.69187569    -0.19900
F199        F  0.30048891  0.10021879  0.74074761    -0.20200
F200        F  0.33494760  0.15889856  0.74010215    -0.22900
C201        C  0.46346860  0.33871647  0.64794167    -0.05700
C202        C  0.49148639  0.33790894  0.66806863     0.00200
C203        C  0.01841534  0.36937282  0.68651867    -0.08400
C204        C  0.01626091  0.40042858  0.68359250    -0.05700
C205        C  0.48809625  0.40115688  0.66369000     0.00200
C206        C  0.46129663  0.36972684  0.64501383    -0.08300
C207        C  0.43094416  0.36866828  0.62094872     0.62100
H208        H  0.44308775  0.31459302  0.63411222     0.12800
H209        H  0.03659749  0.42455549  0.69748183     0.12800
C210        C  0.04882080  0.37033286  0.71031717     0.62300
F211        F  0.41163859  0.33711499  0.59999104    -0.22800
F212        F  0.44389656  0.39556375  0.59238854    -0.20200
F213        F  0.40816595  0.37228518  0.64728179    -0.19800
F214        F  0.07084391  0.36563828  0.68385085    -0.19900
F215        F  0.03589609  0.34401993  0.73961363    -0.20200
F216        F  0.06891017  0.40223902  0.73032212    -0.22900
C217        C  0.01108992  0.11263981  0.69106955    -0.05700
C218        C  0.48396833  0.08422232  0.66946101     0.00200
C219        C  0.45729643  0.08884237  0.65024313    -0.08400
C220        C  0.46018112  0.12240706  0.65144292    -0.05700
C221        C  0.48785341  0.15104575  0.67206434     0.00200
C222        C  0.01306029  0.14575607  0.69372500    -0.08300
C223        C  0.04100964  0.17413582  0.72106759     0.62100
H224        H  0.03068902  0.10852487  0.70652878     0.12800
H225        H  0.44067482  0.12663283  0.63594980     0.12800
C226        C  0.42604989  0.05896452  0.62807106     0.62300
F227        F  0.05810905  0.16104755  0.74493377    -0.22800
F228        F  0.02546913  0.18737431  0.74725446    -0.20200
F229        F  0.06612807  0.20115156  0.69743476    -0.19800
F230        F  0.40482710  0.03333376  0.65589521    -0.19900
F231        F  0.43782724  0.04441858  0.59870515    -0.20200
F232        F  0.40539635  0.07038048  0.60855299    -0.22900
C233        C  0.27227516  0.23924677  0.85825289    -0.05700
C234        C  0.25214854  0.25197328  0.87751328     0.00200
C235        C  0.23341224  0.26424527  0.85373023    -0.08400
C236        C  0.23691013  0.26500006  0.81088849    -0.05700
C237        C  0.25806198  0.25345636  0.79152578     0.00200
C238        C  0.27536233  0.23947769  0.81533682    -0.08300
C239        C  0.29557259  0.22345914  0.79548893     0.62100
H240        H  0.28578301  0.22931599  0.87724406     0.12800
H241        H  0.22311595  0.27470039  0.79203657     0.12800
C242        C  0.20885616  0.27514484  0.87358372     0.62300
F243        F  0.30679731  0.20771519  0.82399503    -0.22800
F244        F  0.32495761  0.24933335  0.77558719    -0.20200
F245        F  0.27402442  0.19787801  0.76758595    -0.19800
F246        F  0.22782974  0.30406794  0.89874498    -0.19900
F247        F  0.18385613  0.24747222  0.89664778    -0.20200
F248        F  0.19132385  0.28400377  0.84477690    -0.22900
C249        C  0.23579413  0.47719988  0.85243623    -0.05700
C250        C  0.26128696  0.00642297  0.87459663     0.00200
C251        C  0.28818363  0.03562394  0.85281340    -0.08400
C252        C  0.28758441  0.03468802  0.80968136    -0.05700
C253        C  0.26131900  0.00597155  0.78775325     0.00200
C254        C  0.23540942  0.47616038  0.80944683    -0.08300
C255        C  0.20804413  0.44271522  0.78782693     0.62100
H256        H  0.21559099  0.45500159  0.86917824     0.12800
H257        H  0.30743972  0.05684287  0.79258591     0.12800
C258        C  0.31777649  0.06755656  0.87434077     0.62300
F259        F  0.18982174  0.41522481  0.81500316    -0.22800
F260        F  0.22443336  0.43187311  0.75975052    -0.20200
F261        F  0.18364186  0.44883982  0.76800134    -0.19800
F262        F  0.33423978  0.05680275  0.90239911    -0.19900
F263        F  0.30427781  0.08628545  0.89412351    -0.20200
F264        F  0.34320866  0.09025385  0.84711914    -0.22900
C265        C  0.40429584  0.27426193  0.98513615    -0.05700
C266        C  0.40430283  0.24466084  0.00189851     0.00200
C267        C  0.37205123  0.21632923  0.01686617    -0.08400
C268        C  0.34157290  0.21967852  0.01598866    -0.05700
C269        C  0.34183932  0.24972564  0.00010492     0.00200
C270        C  0.37370878  0.27722278  0.98329222    -0.08300
C271        C  0.37578077  0.30932112  0.96241446     0.62100
H272        H  0.42877864  0.29534878  0.97301306     0.12800
H273        H  0.31703884  0.19862674  0.02804593     0.12800
C274        C  0.36941713  0.18279210  0.03417074     0.62300
F275        F  0.40777072  0.32958209  0.94288868    -0.22800
F276        F  0.37208989  0.33057144  0.99113824    -0.20200
F277        F  0.34951267  0.29864095  0.93308435    -0.19800
F278        F  0.39381858  0.19111860  0.06531672    -0.19900
F279        F  0.37555532  0.16464854  0.00345121    -0.20200
F280        F  0.33634902  0.16034310  0.05018383    -0.22900
C281        C  0.12117015  0.27867638  0.01729834    -0.05700
C282        C  0.09207117  0.25014990  0.99827306     0.00200
C283        C  0.09698035  0.22424033  0.97759608    -0.08400
C284        C  0.13047042  0.22704604  0.97870794    -0.05700
C285        C  0.15938187  0.25507087  0.99860218     0.00200
C286        C  0.15486589  0.28183915  0.01776318    -0.08300
C287        C  0.18492999  0.31323209  0.03952760     0.62100
H288        H  0.11716175  0.29853609  0.03240035     0.12800
H289        H  0.13437781  0.20708660  0.96369473     0.12800
C290        C  0.06756396  0.19416670  0.95343040     0.62300
F291        F  0.17360992  0.33378831  0.05954173    -0.22800
F292        F  0.21019081  0.33448921  0.01135613    -0.20200
F293        F  0.19991072  0.30158417  0.06846735    -0.19800
F294        F  0.05231934  0.20731955  0.92674737    -0.19900
F295        F  0.04227037  0.17042326  0.97992594    -0.20200
F296        F  0.07988245  0.17591551  0.93035070    -0.22900
C297        C  0.02108484  0.26967408  0.81240727    -0.05700
C298        C  0.48991014  0.24424752  0.79299569     0.00200
C299        C  0.46142221  0.21931754  0.81738917    -0.08400
C300        C  0.46518786  0.22163079  0.86023702    -0.05700
C301        C  0.49614203  0.24739292  0.87933887     0.00200
C302        C  0.02495030  0.27151602  0.85515789    -0.08300
C303        C  0.06006799  0.29838700  0.87397853     0.62100
H304        H  0.04267639  0.28852434  0.79371289     0.12800
H305        H  0.44362745  0.20337275  0.87943915     0.12800
C306        C  0.42744869  0.18984440  0.79899669     0.62300
F307        F  0.08605968  0.31470963  0.84460682    -0.22800
F308        F  0.07135844  0.28188432  0.90129655    -0.20200
F309        F  0.05646981  0.32427255  0.89416624    -0.19800
F310        F  0.43512096  0.17057301  0.77132643    -0.19900
F311        F  0.40916025  0.20394101  0.77952460    -0.20200
F312        F  0.40542239  0.16667618  0.82853491    -0.22900
C313        C  0.37454669  0.02446740  0.02564377    -0.05700
C314        C  0.34808168  0.00121387  0.99861249     0.00200
C315        C  0.35528364  0.48006238  0.97156340    -0.08400
C316        C  0.38855732  0.48239625  0.97344495    -0.05700
C317        C  0.41487426  0.50543677  0.00064375     0.00200
C318        C  0.40790167  0.02688758  0.02732757    -0.08300
C319        C  0.43493872  0.05118647  0.05853283     0.62100
H320        H  0.36868565  0.04051237  0.04589094     0.12800
H321        H  0.39446986  0.46631806  0.95328832     0.12800
C322        C  0.32861994  0.45594446  0.93985032     0.62300
F323        F  0.42118016  0.06623039  0.08474846    -0.22800
F324        F  0.46353960  0.07821214  0.03873618    -0.20200
F325        F  0.44609342  0.03224090  0.08197710    -0.19800
F326        F  0.31654463  0.47456596  0.91723472    -0.19900
F327        F  0.30053161  0.42790664  0.95909019    -0.20200
F328        F  0.34318368  0.44227725  0.91279813    -0.22900
C329        C  0.09861363  0.47339562  0.98217872    -0.05700
C330        C  0.09916507  0.50401016  0.99669041     0.00200
C331        C  0.13140051  0.03213783  0.01214830    -0.08400
C332        C  0.16179900  0.02875962  0.01121351    -0.05700
C333        C  0.16143503  0.99833504  0.99626750     0.00200
C334        C  0.12892883  0.46975450  0.98186506    -0.08300
C335        C  0.12564972  0.43546115  0.96597823     0.62100
H336        H  0.07384778  0.45198259  0.97087181     0.12800
H337        H  0.18644642  0.05023222  0.02268460     0.12800
C338        C  0.13411089  0.06544529  0.03055674     0.62300
F339        F  0.09224920  0.41267449  0.95079823    -0.22800
F340        F  0.13207019  0.41825887  0.99747665    -0.20200
F341        F  0.14941657  0.44242243  0.93454032    -0.19800
F342        F  0.10875199  0.05661966  0.06055419    -0.19900
F343        F  0.12952313  0.08486798  0.00024254    -0.20200
F344        F  0.16668304  0.08685588  0.04857015    -0.22900
C345        C  0.99235089  0.46938790  0.85443970    -0.05700
C346        C  0.49778216  0.50029486  0.87457504     0.00200
C347        C  0.49702609  0.02740389  0.85109504    -0.08400
C348        C  0.49269636  0.02313055  0.80834700    -0.05700
C349        C  0.48811469  0.49269025  0.78866282     0.00200
C350        C  0.98736508  0.46508758  0.81176861    -0.08300
C351        C  0.98174093  0.43153984  0.79105795     0.62100
H352        H  0.99242014  0.44857361  0.87237313     0.12800
H353        H  0.49322916  0.04388192  0.78960281     0.12800
C354        C  0.49989761  0.06042744  0.87050380     0.62300
F355        F  0.98158622  0.40760970  0.81890131    -0.22800
F356        F  0.00848447  0.43959390  0.76322109    -0.20200
F357        F  0.94971302  0.41561489  0.77067561    -0.19800
F358        F  0.53348503  0.08144850  0.88608984    -0.19900
F359        F  0.47531389  0.05114723  0.90152612    -0.20200
F360        F  0.49355112  0.08037028  0.84245555    -0.22900
C361        C  0.22991027  0.25454697  0.52603158    -0.05700
C362        C  0.26169180  0.26082649  0.54446402     0.00200
C363        C  0.29055171  0.26693725  0.51885845    -0.08400
C364        C  0.28603952  0.26613805  0.47602622    -0.05700
C365        C  0.25442167  0.26041808  0.45796044     0.00200
C366        C  0.22565862  0.25417901  0.48334439    -0.08300
C367        C  0.19017053  0.24604313  0.46573342     0.62100
H368        H  0.20805844  0.25016154  0.54552387     0.12800
H369        H  0.30761799  0.27054663  0.45599511     0.12800
C370        C  0.32591522  0.27409628  0.53594051     0.62300
F371        F  0.16457530  0.23579837  0.49574339    -0.22800
F372        F  0.17875474  0.21881980  0.43752843    -0.20200
F373        F  0.19320351  0.27573780  0.44690610    -0.19800
F374        F  0.32116579  0.24702595  0.56178472    -0.19900
F375        F  0.34165525  0.30575549  0.55713054    -0.20200
F376        F  0.34893462  0.27654360  0.50531122    -0.22900
C377        C  0.24870820  0.23014781  0.19164219    -0.05700
C378        C  0.24687612  0.25811663  0.21069782     0.00200
C379        C  0.24599271  0.28436513  0.18585428    -0.08400
C380        C  0.24707488  0.28141405  0.14296106    -0.05700
C381        C  0.24871625  0.25331617  0.12403906     0.00200
C382        C  0.24985015  0.22725091  0.14884182    -0.08300
C383        C  0.25358844  0.19713501  0.13076189     0.62100
H384        H  0.24916219  0.21017694  0.21078292     0.12800
H385        H  0.24627972  0.30109634  0.12362961     0.12800
C386        C  0.24454424  0.31573748  0.20394805     0.62300
F387        F  0.25903800  0.17794086  0.16070941    -0.22800
F388        F  0.28215026  0.21044177  0.10447519    -0.20200
F389        F  0.22322320  0.17413105  0.10972127    -0.19800
F390        F  0.27193109  0.33342334  0.23146030    -0.19900
F391        F  0.21266931  0.30422250  0.22362343    -0.20200
F392        F  0.24757865  0.33963903  0.17420125    -0.22900
C393        C  0.22723432  0.99413112  0.52196466    -0.05700
C394        C  0.25954261  0.00231058  0.54063100     0.00200
C395        C  0.28739490  0.50491589  0.51559262    -0.08400
C396        C  0.28174214  0.49972550  0.47302932    -0.05700
C397        C  0.24960739  0.99200554  0.45470171     0.00200
C398        C  0.22156070  0.98856989  0.47958749    -0.08300
C399        C  0.18535751  0.97793139  0.46199702     0.62100
H400        H  0.20600725  0.99215540  0.54098096     0.12800
H401        H  0.30284659  0.50225289  0.45333153     0.12800
C402        C  0.32279270  0.51261606  0.53307689     0.62300
F403        F  0.16047181  0.46993045  0.49243650    -0.22800
F404        F  0.17387326  0.44827657  0.43754059    -0.20200
F405        F  0.18698686  0.00526220  0.43906032    -0.19800
F406        F  0.31781637  0.48787825  0.56258314    -0.19900
F407        F  0.33989499  0.04606385  0.55008245    -0.20200
F408        F  0.34465338  0.01127411  0.50332090    -0.22900
C409        C  0.26176646  0.47242658  0.13973936    -0.05700
C410        C  0.24890496  0.99245945  0.12075202     0.00200
C411        C  0.23445273  0.00908830  0.14479128    -0.08400
C412        C  0.23402566  0.00548536  0.18759484    -0.05700
C413        C  0.24775798  0.98613381  0.20730798     0.00200
C414        C  0.26202522  0.46918703  0.18264291    -0.08300
C415        C  0.27805699  0.44814557  0.20049814     0.62100
H416        H  0.27251312  0.45997254  0.12037385     0.12800
H417        H  0.22316375  0.01836616  0.20598892     0.12800
C418        C  0.21859256  0.02969598  0.12536155     0.62300
F419        F  0.28923176  0.43358946  0.17035573    -0.22800
F420        F  0.25338477  0.42065703  0.22393402    -0.20200
F421        F  0.30711465  0.46994293  0.22423652    -0.19800
F422        F  0.19334114  0.00876110  0.09680902    -0.19900
F423        F  0.24466156  0.05952259  0.10631672    -0.20200
F424        F  0.20255894  0.04048082  0.15404746    -0.22900
C425        C  0.01763941  0.24114858  0.52701327    -0.05700
C426        C  0.49073020  0.24453713  0.54613843     0.00200
C427        C  0.46630749  0.24888076  0.52172371    -0.08400
C428        C  0.46799057  0.24654323  0.47890630    -0.05700
C429        C  0.49415564  0.24181233  0.45963860     0.00200
C430        C  0.02043818  0.24057195  0.48415894    -0.08300
C431        C  0.05211850  0.23995975  0.46582165     0.62100
H432        H  0.03656879  0.23871917  0.54610499     0.12800
H433        H  0.44861448  0.24841912  0.46008906     0.12800
C434        C  0.43973761  0.25775075  0.54029325     0.62300
F435        F  0.07695787  0.24484840  0.49532319    -0.22800
F436        F  0.06846970  0.26685650  0.43752314    -0.20200
F437        F  0.04145935  0.20777960  0.44708218    -0.19800
F438        F  0.45673801  0.28591736  0.56706726    -0.19900
F439        F  0.41390407  0.22889627  0.56099257    -0.20200
F440        F  0.42330214  0.26723259  0.51069030    -0.22900
C441        C  0.40030560  0.11763148  0.31351194    -0.05700
C442        C  0.40142525  0.14581361  0.33568270     0.00200
C443        C  0.37091581  0.14011086  0.35749155    -0.08400
C444        C  0.33998928  0.10684810  0.35466007    -0.05700
C445        C  0.33874685  0.07880002  0.33206665     0.00200
C446        C  0.36960417  0.08417491  0.31129401    -0.08300
C447        C  0.37026458  0.05517936  0.28612431     0.62100
H448        H  0.42385437  0.12205819  0.29777197     0.12800
H449        H  0.31651979  0.10229601  0.37075532     0.12800
C450        C  0.37119912  0.16826374  0.38519962     0.62300
F451        F  0.40120069  0.06759489  0.26401027    -0.22800
F452        F  0.34250175  0.04123631  0.25855505    -0.20200
F453        F  0.36765322  0.02882088  0.31175185    -0.19800
F454        F  0.37364494  0.19577176  0.36190395    -0.19900
F455        F  0.39955654  0.18083805  0.41188714    -0.20200
F456        F  0.34080088  0.15519932  0.40847519    -0.22900
C457        C  0.11473219  0.33160519  0.31503678    -0.05700
C458        C  0.08650524  0.33089286  0.33642018     0.00200
C459        C  0.09203477  0.36191959  0.35708767    -0.08400
C460        C  0.12545324  0.39265807  0.35464494    -0.05700
C461        C  0.15365646  0.39347481  0.33299110     0.00200
C462        C  0.14815067  0.36228121  0.31264276    -0.08300
C463        C  0.17661666  0.36145732  0.28678875     0.62100
H464        H  0.11018260  0.30779189  0.29949292     0.12800
H465        H  0.12989373  0.41649053  0.37001832     0.12800
C466        C  0.06335297  0.36261128  0.38269805     0.62300
F467        F  0.16412898  0.32988493  0.26574016    -0.22800
F468        F  0.20415274  0.36554887  0.31143317    -0.20200
F469        F  0.18883097  0.38827847  0.25824706    -0.19800
F470        F  0.04980181  0.33491568  0.41022409    -0.19900
F471        F  0.03665081  0.35986908  0.35750590    -0.20200
F472        F  0.07605322  0.39363391  0.40492591    -0.22900
C473        C  0.00759472  0.27262902  0.19448506    -0.05700
C474        C  0.99642045  0.23983088  0.21290476     0.00200
C475        C  0.48662377  0.20976195  0.18811490    -0.08400
C476        C  0.48815942  0.21370353  0.14533562    -0.05700
C477        C  0.99941378  0.24658792  0.12638447     0.00200
C478        C  0.00981437  0.27693436  0.15167536    -0.08300
C479        C  0.02328204  0.31383019  0.13451345     0.62100
H480        H  0.01511461  0.29523582  0.21437198     0.12800
H481        H  0.48058957  0.19065772  0.12628173     0.12800
C482        C  0.47354733  0.17346077  0.20660031     0.62300
F483        F  0.03108048  0.33869015  0.16509402    -0.22800
F484        F  0.99792122  0.31425362  0.10951112    -0.20200
F485        F  0.05393592  0.32411480  0.11256498    -0.19800
F486        F  0.44603685  0.16570571  0.23319368    -0.19900
F487        F  0.50068336  0.17277159  0.22759281    -0.20200
F488        F  0.46142079  0.14723984  0.17699161    -0.22900
C489        C  0.01379753  0.49628596  0.47612913    -0.05700
C490        C  0.49016129  0.50405489  0.45554113     0.00200
C491        C  0.46416176  0.00699721  0.47885273    -0.08400
C492        C  0.46369753  0.00292578  0.52179029    -0.05700
C493        C  0.48807074  0.99621363  0.54210388     0.00200
C494        C  0.01304645  0.49189739  0.51877637    -0.08300
C495        C  0.03843781  0.48185573  0.53830163     0.62100
H496        H  0.03352332  0.49399368  0.45848620     0.12800
H497        H  0.44458237  0.00566145  0.54009857     0.12800
C498        C  0.43662461  0.01386185  0.45913543     0.62300
F499        F  0.05459237  0.47146122  0.50930947    -0.22800
F500        F  0.02048410  0.45395258  0.56497488    -0.20200
F501        F  0.06456115  0.01048157  0.55932968    -0.19800
F502        F  0.41824347  0.48857401  0.42947668    -0.19900
F503        F  0.45283061  0.04705846  0.44167036    -0.20200
F504        F  0.41237139  0.01255472  0.48736327    -0.22900
C505        C  0.39786900  0.39604220  0.36258152    -0.05700
C506        C  0.40551020  0.41794647  0.32826662     0.00200
C507        C  0.38130356  0.40677072  0.29516780    -0.08400
C508        C  0.34993787  0.37383093  0.29777098    -0.05700
C509        C  0.34238356  0.35183648  0.33204230     0.00200
C510        C  0.36647464  0.36324345  0.36526190    -0.08300
C511        C  0.35838921  0.34134612  0.40388986     0.62100
H512        H  0.41672461  0.40512678  0.38767083     0.12800
H513        H  0.33106574  0.36478558  0.27273695     0.12800
C514        C  0.38919616  0.42906705  0.25686343     0.62300
F515        F  0.38381955  0.35841508  0.43382922    -0.22800
F516        F  0.35688058  0.30966733  0.39499754    -0.20200
F517        F  0.32632084  0.33482648  0.41959051    -0.19800
F518        F  0.42128109  0.43596716  0.24076304    -0.19900
F519        F  0.39060693  0.46060734  0.26635695    -0.20200
F520        F  0.36363379  0.41219896  0.22700442    -0.22900
C521        C  0.09433933  0.13048379  0.31550524    -0.05700
C522        C  0.09189516  0.10154263  0.33709711     0.00200
C523        C  0.12208060  0.10595024  0.35884403    -0.08400
C524        C  0.15359227  0.13891300  0.35734038    -0.05700
C525        C  0.15604032  0.16778800  0.33558265     0.00200
C526        C  0.12576465  0.16344366  0.31409056    -0.08300
C527        C  0.12653743  0.19296546  0.28869376     0.62100
H528        H  0.07118769  0.12694454  0.29915121     0.12800
H529        H  0.17678933  0.14249728  0.37361862     0.12800
C530        C  0.12109712  0.07648382  0.38450457     0.62300
F531        F  0.09614095  0.18137002  0.26557858    -0.22800
F532        F  0.15480085  0.20629806  0.26196869    -0.20200
F533        F  0.12945691  0.21960811  0.31420394    -0.19800
F534        F  0.11868335  0.04993693  0.35920131    -0.19900
F535        F  0.09242895  0.06298117  0.41065431    -0.20200
F536        F  0.15116695  0.08822725  0.40825137    -0.22900
C537        C  0.00840801  0.03704741  0.14044013    -0.05700
C538        C  0.51067185  0.50929303  0.12165039     0.00200
C539        C  0.51322682  0.48410074  0.14656801    -0.08400
C540        C  0.51028720  0.48597373  0.18928593    -0.05700
C541        C  0.50614455  0.51269472  0.20815967     0.00200
C542        C  0.00643364  0.03953511  0.18328267    -0.08300
C543        C  0.00550836  0.07120137  0.20129965     0.62100
H544        H  0.00750588  0.05667152  0.12105684     0.12800
H545        H  0.51081982  0.46598829  0.20835818     0.12800
C546        C  0.52040749  0.45611677  0.12865239     0.62300
F547        F  0.01164275  0.09642554  0.17190723    -0.22800
F548        F  0.03135551  0.08705145  0.23102735    -0.20200
F549        F  0.97275499  0.06058080  0.21823746    -0.19800
F550        F  0.54833544  0.47151746  0.10149648    -0.19900
F551        F  0.49074665  0.43060297  0.10856871    -0.20200
F552        F  0.52923813  0.43952485  0.15870570    -0.22900
O553        O  0.46837418  0.95103614  0.33002561    -0.74400
O554        O  0.05677413  0.53794931  0.33616702    -0.74400
O555        O  0.00905622  0.99292715  0.39131512    -0.74400
O556        O  0.01587883  0.99594165  0.27449889    -0.74500
O557        O  0.48737938  0.52619372  0.27193388    -0.74400
O558        O  0.48052490  0.52312405  0.38941561    -0.74400
O559        O  0.02840527  0.56833479  0.33386107    -0.74400
O560        O  0.43965721  0.98123434  0.32727392    -0.74400
Ni561      Ni  0.01352909  0.99343880  0.33305014     1.25400
Ni562      Ni  0.48298557  0.52584125  0.33053092     1.25400
C563        C  0.43946770  0.95178241  0.32800586     0.87800
C564        C  0.05737763  0.56757794  0.33600949     0.87800
C565        C  0.49318250  0.00695186  0.40987297     0.87800
C566        C  0.00305109  0.01182083  0.25374013     0.87900
O567        O  0.46456278  0.67996536  0.33640550    -0.74400
O568        O  0.05227756  0.76770446  0.33686381    -0.74400
O569        O  0.00787280  0.72451720  0.39526468    -0.74400
O570        O  0.00896073  0.72341900  0.27797125    -0.74500
O571        O  0.47972631  0.75313321  0.27686482    -0.74400
O572        O  0.47873721  0.75415906  0.39394667    -0.74400
O573        O  0.02297512  0.79723929  0.33570035    -0.74400
O574        O  0.43517791  0.70942821  0.33532785    -0.74400
Ni575      Ni  0.00942241  0.72281393  0.33667632     1.25400
Ni576      Ni  0.47804292  0.75446157  0.33538565     1.25400
C577        C  0.43530470  0.68014126  0.33608442     0.87800
C578        C  0.05218277  0.79703104  0.33663641     0.87800
C579        C  0.99371215  0.74006775  0.41408518     0.87800
C580        C  0.99468924  0.73833196  0.25811877     0.87900
O581        O  0.27546977  0.54485371  0.33053697    -0.74400
O582        O  0.18762756  0.95682817  0.33141314    -0.74400
O583        O  0.23167724  0.50219022  0.38935913    -0.74400
O584        O  0.23170183  0.49988013  0.27224422    -0.74500
O585        O  0.26113948  0.97067046  0.27353736    -0.74400
O586        O  0.26128687  0.97291133  0.39094100    -0.74400
O587        O  0.21720852  0.92760978  0.33272434    -0.74400
O588        O  0.30480946  0.51536934  0.33185147    -0.74400
Ni589      Ni  0.23050223  0.50191161  0.33080109     1.25400
Ni590      Ni  0.26206753  0.97052262  0.33229434     1.25400
C591        C  0.30473459  0.54464028  0.33114433     0.87800
C592        C  0.18787797  0.92756426  0.33204972     0.87800
C593        C  0.24693863  0.48845817  0.40950023     0.87800
C594        C  0.24678545  0.48525939  0.25323377     0.87900
O595        O  0.26270125  0.74439577  0.27522657    -0.74400
O596        O  0.26607677  0.74479073  0.39222268    -0.74400
O597        O  0.21970689  0.70084486  0.33474586    -0.74400
O598        O  0.30851247  0.78847042  0.33274956    -0.74500
O599        O  0.27947068  0.81840113  0.33366183    -0.74400
O600        O  0.19128141  0.73121070  0.33667354    -0.74400
O601        O  0.23752594  0.77511613  0.39411324    -0.74400
O602        O  0.23358517  0.77407495  0.27653758    -0.74400
Ni603      Ni  0.26525646  0.74354246  0.33365903     1.25400
Ni604      Ni  0.23444681  0.77575409  0.33537281     1.25400
C605        C  0.24776204  0.75917404  0.25636703     0.87800
C606        C  0.25233842  0.75999650  0.41255925     0.87800
C607        C  0.19068001  0.70160795  0.33556539     0.87800
C608        C  0.30850359  0.81786063  0.33291051     0.87900
O609        O  0.03590507  0.97526804  0.99778990    -0.74400
O610        O  0.44844433  0.97595762  0.00087162    -0.74400
O611        O  0.48939621  0.97344450  0.94065050    -0.74400
O612        O  0.49448241  0.97772286  0.05788425    -0.74500
O613        O  0.02416989  0.53640587  0.05553979    -0.74400
O614        O  0.01871047  0.53205699  0.93828839    -0.74400
O615        O  0.47798427  0.53473732  0.99896197    -0.74400
O616        O  0.06523952  0.53384653  0.99495947    -0.74400
Ni617      Ni  0.49108287  0.97350970  0.99937952     1.27800
Ni618      Ni  0.02263495  0.53633472  0.99680328     1.25400
C619        C  0.06518948  0.00452992  0.99651140     0.87800
C620        C  0.44881708  0.00548645  0.00053474     0.87800
C621        C  0.50229868  0.00213411  0.92002162     0.87800
C622        C  0.51006388  0.00766278  0.07614069     0.87900
O623        O  0.05673966  0.77801220  0.00111358    -0.74400
O624        O  0.46750129  0.77501714  0.00362955    -0.74400
O625        O  0.01308577  0.77642626  0.06109816    -0.74400
O626        O  0.01126250  0.77677629  0.94410365    -0.74500
O627        O  0.48366262  0.71801333  0.94357541    -0.74400
O628        O  0.48485884  0.71791233  0.06072494    -0.74400
O629        O  0.43972762  0.71641385  0.00260476    -0.74400
O630        O  0.02878344  0.71934612  0.00119280    -0.74400
Ni631      Ni  0.01313035  0.77865142  0.00257172     1.25400
Ni632      Ni  0.48329484  0.71584041  0.00208459     1.25400
C633        C  0.05747405  0.74903070  0.00011709     0.87800
C634        C  0.43875065  0.74519927  0.00307804     0.87800
C635        C  0.99918734  0.74720694  0.08053760     0.87800
C636        C  0.99735037  0.74749850  0.92454284     0.87900
O637        O  0.22470762  0.52795560  0.99864440    -0.74400
O638        O  0.31334890  0.52961544  0.00191334    -0.74400
O639        O  0.27199666  0.53234631  0.94192770    -0.74400
O640        O  0.26604254  0.52551976  0.05875197    -0.74500
O641        O  0.23826874  0.96682558  0.05415002    -0.74400
O642        O  0.24342593  0.97382945  0.93719467    -0.74400
O643        O  0.28494042  0.97102154  0.99655631    -0.74400
O644        O  0.19646088  0.96945975  0.99466293    -0.74400
Ni645      Ni  0.27003147  0.53094102  0.00050854     1.25400
Ni646      Ni  0.23975361  0.96820167  0.99548081     1.25400
C647        C  0.19576862  0.49839621  0.99627680     0.87800
C648        C  0.31376021  0.50053562  0.99895009     0.87800
C649        C  0.25901664  0.50427371  0.92013226     0.87800
C650        C  0.25095441  0.49511255  0.07566857     0.87900
O651        O  0.22271086  0.78322330  0.99941722    -0.74400
O652        O  0.30879946  0.78030529  0.00124962    -0.74400
O653        O  0.26624220  0.78150812  0.94177731    -0.74400
O654        O  0.26521324  0.78212343  0.05905587    -0.74500
O655        O  0.23481008  0.72345035  0.05903079    -0.74400
O656        O  0.23591272  0.72262808  0.94172472    -0.74400
O657        O  0.27860326  0.72168216  0.00109998    -0.74400
O658        O  0.19220131  0.72455664  0.99945243    -0.74400
Ni659      Ni  0.26684129  0.78385528  0.00038685     1.25400
Ni660      Ni  0.23427297  0.72096792  0.00038048     1.25400
C661        C  0.19314828  0.75440067  0.99936800     0.87800
C662        C  0.30815226  0.75069156  0.00075742     0.87800
C663        C  0.25121463  0.75202293  0.92254745     0.87800
C664        C  0.24979347  0.75281848  0.07850351     0.87900
O665        O  0.01690680  0.96453497  0.66446798    -0.74400
O666        O  0.01478829  0.55156704  0.66738384    -0.74400
O667        O  0.01638049  0.50741755  0.72428023    -0.74400
O668        O  0.01631909  0.50929655  0.60743378    -0.74500
O669        O  0.45758621  0.97933275  0.60655952    -0.74400
O670        O  0.45748303  0.97687582  0.72452760    -0.74400
O671        O  0.45613727  0.52106852  0.66735047    -0.74400
O672        O  0.45824332  0.93470054  0.66401822    -0.74400
Ni673      Ni  0.01818445  0.50926714  0.66587296     1.25400
Ni674      Ni  0.45526407  0.97689432  0.66557749     1.25400
C675        C  0.48768608  0.93509215  0.66369180     0.87800
C676        C  0.48492817  0.55061290  0.66777226     0.87800
C677        C  0.48712172  0.49197228  0.74360108     0.87800
C678        C  0.98722376  0.49465161  0.58757598     0.87900
O679        O  0.01825821  0.71434861  0.67019489    -0.74400
O680        O  0.01995739  0.80287381  0.66945272    -0.74400
O681        O  0.01879256  0.75858736  0.72816613    -0.74400
O682        O  0.01939591  0.75854522  0.61119103    -0.74500
O683        O  0.46068582  0.73011991  0.61064708    -0.74400
O684        O  0.46019335  0.73062867  0.72780390    -0.74400
O685        O  0.46131792  0.77469324  0.66883477    -0.74400
O686        O  0.45957601  0.68597937  0.66993163    -0.74400
Ni687      Ni  0.02116772  0.75959978  0.66974144     1.25400
Ni688      Ni  0.45833445  0.72933270  0.66924671     1.25400
C689        C  0.48869029  0.68551503  0.67091477     0.87800
C690        C  0.49100863  0.80354746  0.66915659     0.87800
C691        C  0.48939404  0.74430163  0.74744974     0.87800
C692        C  0.49011735  0.74457549  0.59153359     0.87900
O693        O  0.23459098  0.53898005  0.66299487    -0.74400
O694        O  0.23201089  0.94944019  0.66623752    -0.74400
O695        O  0.23295955  0.99501635  0.72275656    -0.74400
O696        O  0.23246266  0.99232255  0.60624781    -0.74500
O697        O  0.29101459  0.52087931  0.60538847    -0.74400
O698        O  0.29161933  0.52231629  0.72329385    -0.74400
O699        O  0.29061986  0.97782241  0.66516381    -0.74400
O700        O  0.29325030  0.56647266  0.66370943    -0.74400
Ni701      Ni  0.23092091  0.99304326  0.66450681     1.25400
Ni702      Ni  0.29371135  0.52295197  0.66432780     1.25400
C703        C  0.26459264  0.56760416  0.66348134     0.87800
C704        C  0.26119990  0.94901354  0.66688084     0.87800
C705        C  0.26205136  0.50786852  0.74239530     0.87800
C706        C  0.26142980  0.50553862  0.58627775     0.87900
O707        O  0.23353837  0.69881069  0.66578664    -0.74400
O708        O  0.23003720  0.78463897  0.66922307    -0.74400
O709        O  0.23281847  0.74338371  0.60923165    -0.74400
O710        O  0.23058644  0.74006260  0.72613769    -0.74500
O711        O  0.28936697  0.77049137  0.72792526    -0.74400
O712        O  0.29135177  0.77450314  0.61028651    -0.74400
O713        O  0.28860272  0.81559209  0.67092956    -0.74400
O714        O  0.29224699  0.72947930  0.66699637    -0.74400
Ni715      Ni  0.22972621  0.74063808  0.66759759     1.25400
Ni716      Ni  0.29253718  0.77364349  0.66916713     1.25400
C717        C  0.26335038  0.69989787  0.66506216     0.87800
C718        C  0.25864977  0.81438709  0.66999437     0.87800
C719        C  0.26228942  0.75951315  0.59019555     0.87800
C720        C  0.25955783  0.75457122  0.74631211     0.87900
C721        C  0.23233416  0.88497363  0.65137504    -0.05700
C722        C  0.26091286  0.91477571  0.66918364     0.00200
C723        C  0.28801916  0.91103327  0.68868608    -0.08400
C724        C  0.28576213  0.87773017  0.68843729    -0.05700
C725        C  0.25750197  0.84800957  0.66997663     0.00200
C726        C  0.23006223  0.85163080  0.65115382    -0.08300
C727        C  0.19886304  0.82100720  0.62982205     0.62100
H728        H  0.21181099  0.88817271  0.63689711     0.12800
H729        H  0.30638686  0.87465554  0.70285091     0.12800
C730        C  0.31899691  0.94156367  0.71053278     0.62300
F731        F  0.17775270  0.83159579  0.60979366    -0.22800
F732        F  0.17809295  0.79583776  0.65832947    -0.20200
F733        F  0.21076210  0.80616573  0.60091553    -0.19800
F734        F  0.30682763  0.95729380  0.73790989    -0.19900
F735        F  0.34102861  0.96615666  0.68223866    -0.20200
F736        F  0.33892248  0.93056235  0.73244227    -0.22900
C737        C  0.24269128  0.60654807  0.63759815    -0.05700
C738        C  0.26615806  0.60244112  0.66330714     0.00200
C739        C  0.29032112  0.63145158  0.68785651    -0.08400
C740        C  0.28871789  0.66288050  0.68713528    -0.05700
C741        C  0.26438128  0.66646481  0.66250111     0.00200
C742        C  0.24202712  0.63843598  0.63586237    -0.08300
C743        C  0.21889231  0.64267933  0.60420972     0.62100
H744        H  0.22506730  0.58454811  0.61823724     0.12800
H745        H  0.30643552  0.68501752  0.70621272     0.12800
C746        C  0.31721640  0.62929037  0.71546465     0.62300
F747        F  0.20533332  0.61532392  0.57600555    -0.22800
F748        F  0.23851456  0.67383218  0.58288352    -0.20200
F749        F  0.19089484  0.64314825  0.62324702    -0.19800
F750        F  0.34207023  0.62662960  0.69188272    -0.19900
F751        F  0.30048042  0.60021694  0.74075071    -0.20200
F752        F  0.33493822  0.65889690  0.74010717    -0.22900
C753        C  0.46345506  0.83870778  0.64793056    -0.05700
C754        C  0.49146521  0.83789786  0.66807356     0.00200
C755        C  0.01839972  0.86936509  0.68653016    -0.08400
C756        C  0.01624704  0.90042142  0.68360001    -0.05700
C757        C  0.48807643  0.90114565  0.66368894     0.00200
C758        C  0.46128379  0.86971853  0.64500046    -0.08300
C759        C  0.43094058  0.86866416  0.62091948     0.62100
H760        H  0.44308084  0.81458709  0.63409135     0.12800
H761        H  0.03658139  0.92454753  0.69749407     0.12800
C762        C  0.04879626  0.87032109  0.71034454     0.62300
F763        F  0.41164252  0.83711410  0.59995342    -0.22800
F764        F  0.44390409  0.89556425  0.59236493    -0.20200
F765        F  0.40815285  0.87227743  0.64724026    -0.19800
F766        F  0.07082948  0.86563081  0.68389045    -0.19900
F767        F  0.03586020  0.84400317  0.73963508    -0.20200
F768        F  0.06887794  0.90222388  0.73035901    -0.22900
C769        C  0.01109760  0.61264508  0.69106909    -0.05700
C770        C  0.48398497  0.58423174  0.66945524     0.00200
C771        C  0.45731211  0.58884922  0.65023588    -0.08400
C772        C  0.46019255  0.62241176  0.65143767    -0.05700
C773        C  0.48786085  0.65105034  0.67206340     0.00200
C774        C  0.01306566  0.64576024  0.69372641    -0.08300
C775        C  0.04101292  0.67413980  0.72107110     0.62100
H776        H  0.03069694  0.60853068  0.70652855     0.12800
H777        H  0.44068557  0.62663585  0.63594299     0.12800
C778        C  0.42606899  0.55897079  0.62806004     0.62300
F779        F  0.05811343  0.66105230  0.74493660    -0.22800
F780        F  0.02546980  0.68737507  0.74725862    -0.20200
F781        F  0.06613085  0.70115782  0.69744034    -0.19800
F782        F  0.40484485  0.53333806  0.65588154    -0.19900
F783        F  0.43785118  0.54442791  0.59869606    -0.20200
F784        F  0.40541536  0.57038513  0.60853894    -0.22900
C785        C  0.27226203  0.73923253  0.85824828    -0.05700
C786        C  0.25214343  0.75196768  0.87751034     0.00200
C787        C  0.23341448  0.76424905  0.85372853    -0.08400
C788        C  0.23691113  0.76500313  0.81088663    -0.05700
C789        C  0.25805529  0.75345087  0.79152260     0.00200
C790        C  0.27534868  0.73946396  0.81533213    -0.08300
C791        C  0.29555153  0.72343829  0.79548218     0.62100
H792        H  0.28576478  0.72929511  0.87723841     0.12800
H793        H  0.22312216  0.77471014  0.79203534     0.12800
C794        C  0.20886723  0.77515954  0.87358325     0.62300
F795        F  0.30677098  0.70768845  0.82398665    -0.22800
F796        F  0.32493917  0.74930862  0.77558037    -0.20200
F797        F  0.27399887  0.69786034  0.76757872    -0.19800
F798        F  0.22784860  0.80408193  0.89874291    -0.19900
F799        F  0.18386295  0.74749155  0.89664908    -0.20200
F800        F  0.19133970  0.78402516  0.84477723    -0.22900
C801        C  0.23578922  0.97719905  0.85243627    -0.05700
C802        C  0.26129164  0.50642433  0.87459616     0.00200
C803        C  0.28818915  0.53562434  0.85281262    -0.08400
C804        C  0.28758942  0.53468840  0.80968062    -0.05700
C805        C  0.26132345  0.50597207  0.78775287     0.00200
C806        C  0.23540421  0.97616012  0.80944691    -0.08300
C807        C  0.20803766  0.94271577  0.78782679     0.62100
H808        H  0.21558600  0.95500046  0.86917816     0.12800
H809        H  0.30744463  0.55684314  0.79258503     0.12800
C810        C  0.31778352  0.56755590  0.87433972     0.62300
F811        F  0.18981317  0.91522577  0.81500291    -0.22800
F812        F  0.22442582  0.93187181  0.75975115    -0.20200
F813        F  0.18363721  0.94884257  0.76800033    -0.19800
F814        F  0.33424382  0.55680029  0.90240008    -0.19900
F815        F  0.30428741  0.58628815  0.89412003    -0.20200
F816        F  0.34321763  0.59025048  0.84711815    -0.22900
C817        C  0.40429529  0.77425675  0.98513241    -0.05700
C818        C  0.40430171  0.74465470  0.00189277     0.00200
C819        C  0.37204898  0.71632115  0.01685546    -0.08400
C820        C  0.34157077  0.71967060  0.01597804    -0.05700
C821        C  0.34183796  0.74971909  0.00009767     0.00200
C822        C  0.37370795  0.77721711  0.98328714    -0.08300
C823        C  0.37578028  0.80931590  0.96241024     0.62100
H824        H  0.42877840  0.79534453  0.97301216     0.12800
H825        H  0.31703613  0.69861780  0.02803285     0.12800
C826        C  0.36941326  0.68278152  0.03415425     0.62300
F827        F  0.40777030  0.82957688  0.94288460    -0.22800
F828        F  0.37208953  0.83056588  0.99113462    -0.20200
F829        F  0.34951228  0.79863641  0.93308008    -0.19800
F830        F  0.39381091  0.69110353  0.06530365    -0.19900
F831        F  0.37555549  0.66464289  0.00343219    -0.20200
F832        F  0.33634328  0.66032956  0.05016078    -0.22900
C833        C  0.12117055  0.77867141  0.01730588    -0.05700
C834        C  0.09207190  0.75014692  0.99827777     0.00200
C835        C  0.09698071  0.72423788  0.97759880    -0.08400
C836        C  0.13047054  0.72704323  0.97870971    -0.05700
C837        C  0.15938180  0.75506644  0.99860585     0.00200
C838        C  0.15486579  0.78183319  0.01777093    -0.08300
C839        C  0.18492931  0.81322286  0.03954034     0.62100
H840        H  0.11716206  0.79853101  0.03241061     0.12800
H841        H  0.13437809  0.70708407  0.96369363     0.12800
C842        C  0.06756411  0.69416526  0.95343212     0.62300
F843        F  0.17360884  0.83377658  0.05955954    -0.22800
F844        F  0.21019145  0.83448361  0.01137215    -0.20200
F845        F  0.19990851  0.80157045  0.06847669    -0.19800
F846        F  0.05232032  0.70731946  0.92674976    -0.19900
F847        F  0.04226998  0.67042144  0.97992690    -0.20200
F848        F  0.07988208  0.67591403  0.93035165    -0.22900
C849        C  0.02108286  0.76967690  0.81240844    -0.05700
C850        C  0.48990455  0.74424261  0.79299656     0.00200
C851        C  0.46142003  0.71930851  0.81739060    -0.08400
C852        C  0.46518764  0.72162093  0.86023824    -0.05700
C853        C  0.49614068  0.74738609  0.87933921     0.00200
C854        C  0.02494985  0.77151858  0.85515889    -0.08300
C855        C  0.06006670  0.79839309  0.87397817     0.62100
H856        H  0.04267207  0.78852950  0.79371361     0.12800
H857        H  0.44362942  0.70335978  0.87944094     0.12800
C858        C  0.42744846  0.68983194  0.79899877     0.62300
F859        F  0.08605658  0.81471929  0.84460520    -0.22800
F860        F  0.07136210  0.78189330  0.90129410    -0.20200
F861        F  0.05646467  0.82427555  0.89416778    -0.19800
F862        F  0.43512450  0.67056455  0.77132679    -0.19900
F863        F  0.40915484  0.70392389  0.77952878    -0.20200
F864        F  0.40542551  0.66666114  0.82853718    -0.22900
C865        C  0.37455550  0.52448527  0.02563234    -0.05700
C866        C  0.34808544  0.50121987  0.99861390     0.00200
C867        C  0.35528353  0.98006603  0.97155067    -0.08400
C868        C  0.38855488  0.98239495  0.97343544    -0.05700
C869        C  0.41486644  0.00542305  0.00064737     0.00200
C870        C  0.40791215  0.52690918  0.02731414    -0.08300
C871        C  0.43495347  0.55122027  0.05850822     0.62100
H872        H  0.36869710  0.54053714  0.04587175     0.12800
H873        H  0.39447007  0.96632374  0.95327110     0.12800
C874        C  0.32862664  0.95596489  0.93982179     0.62300
F875        F  0.42119710  0.56627063  0.08471744    -0.22800
F876        F  0.46354941  0.57824108  0.03869924    -0.20200
F877        F  0.44611484  0.53228483  0.08196092    -0.19800
F878        F  0.31655990  0.97459973  0.91721777    -0.19900
F879        F  0.30053170  0.92791947  0.95904297    -0.20200
F880        F  0.34319509  0.94230844  0.91276141    -0.22900
C881        C  0.09860690  0.97338227  0.98218047    -0.05700
C882        C  0.09915733  0.00399650  0.99669154     0.00200
C883        C  0.13140894  0.53215121  0.01214605    -0.08400
C884        C  0.16180662  0.52877162  0.01121094    -0.05700
C885        C  0.16144123  0.49834621  0.99626535     0.00200
C886        C  0.12892300  0.96974244  0.98186735    -0.08300
C887        C  0.12564514  0.93544946  0.96598107     0.62100
H888        H  0.07384197  0.95196933  0.97087364     0.12800
H889        H  0.18645486  0.55024403  0.02268186     0.12800
C890        C  0.13412089  0.56545968  0.03055348     0.62300
F891        F  0.09224462  0.91266145  0.95080207    -0.22800
F892        F  0.13206722  0.91824844  0.99747960    -0.20200
F893        F  0.14941159  0.94241116  0.93454259    -0.19800
F894        F  0.10876381  0.55663563  0.06055283    -0.19900
F895        F  0.12953166  0.58488126  0.00023909    -0.20200
F896        F  0.16669419  0.58687074  0.04856415    -0.22900
C897        C  0.99235179  0.96937838  0.85443740    -0.05700
C898        C  0.49775229  0.00026646  0.87457756     0.00200
C899        C  0.49708974  0.52744678  0.85108564    -0.08400
C900        C  0.49276393  0.52317296  0.80833733    -0.05700
C901        C  0.48807507  0.99266054  0.78866660     0.00200
C902        C  0.98736419  0.96507841  0.81176637    -0.08300
C903        C  0.98175720  0.93153835  0.79105209     0.62100
H904        H  0.99243619  0.94857088  0.87236789     0.12800
H905        H  0.49331863  0.54393189  0.78958863     0.12800
C906        C  0.49999229  0.56048672  0.87048604     0.62300
F907        F  0.98161736  0.90761345  0.81889233    -0.22800
F908        F  0.00850279  0.93960733  0.76321353    -0.20200
F909        F  0.94972856  0.91560066  0.77067118    -0.19800
F910        F  0.53357878  0.58147957  0.88608860    -0.19900
F911        F  0.47539947  0.55122992  0.90149394    -0.20200
F912        F  0.49368563  0.58045058  0.84242751    -0.22900
C913        C  0.22990546  0.75454859  0.52602862    -0.05700
C914        C  0.26168657  0.76082705  0.54446140     0.00200
C915        C  0.29054688  0.76693840  0.51885630    -0.08400
C916        C  0.28603553  0.76614057  0.47602413    -0.05700
C917        C  0.25441807  0.76042113  0.45795782     0.00200
C918        C  0.22565465  0.75418184  0.48334126    -0.08300
C919        C  0.19016695  0.74604668  0.46572975     0.62100
H920        H  0.20805387  0.75016291  0.54552028     0.12800
H921        H  0.30761430  0.77054954  0.45599349     0.12800
C922        C  0.32591000  0.77409657  0.53593869     0.62300
F923        F  0.16457148  0.73580248  0.49573937    -0.22800
F924        F  0.17875092  0.71882322  0.43752491    -0.20200
F925        F  0.19320073  0.77574155  0.44690208    -0.19800
F926        F  0.32115989  0.74702547  0.56178198    -0.19900
F927        F  0.34164999  0.80575526  0.55712974    -0.20200
F928        F  0.34892974  0.77654438  0.50530958    -0.22900
C929        C  0.24871337  0.73014865  0.19164089    -0.05700
C930        C  0.24687879  0.75811668  0.21069503     0.00200
C931        C  0.24599299  0.78436315  0.18585006    -0.08400
C932        C  0.24707529  0.78141085  0.14295710    -0.05700
C933        C  0.24871880  0.75331359  0.12403662     0.00200
C934        C  0.24985536  0.72725051  0.14884070    -0.08300
C935        C  0.25359704  0.69713620  0.13076214     0.62100
H936        H  0.24916935  0.71017890  0.21078310     0.12800
H937        H  0.24627870  0.80109198  0.12362447     0.12800
C938        C  0.24454194  0.81573471  0.20394205     0.62300
F939        F  0.25904908  0.67794449  0.16071064    -0.22800
F940        F  0.28215886  0.71044472  0.10447534    -0.20200
F941        F  0.22323264  0.67412969  0.10972187    -0.19800
F942        F  0.27192859  0.83342303  0.23145397    -0.19900
F943        F  0.21266669  0.80421825  0.22361730    -0.20200
F944        F  0.24757438  0.83963453  0.17419398    -0.22900
C945        C  0.22723127  0.49412617  0.52196534    -0.05700
C946        C  0.25954205  0.50231278  0.54063051     0.00200
C947        C  0.28739229  0.00490434  0.51559485    -0.08400
C948        C  0.28174005  0.99971422  0.47303137    -0.05700
C949        C  0.24960687  0.49200942  0.45470120     0.00200
C950        C  0.22155796  0.48856648  0.47958800    -0.08300
C951        C  0.18535335  0.47792252  0.46199787     0.62100
H952        H  0.20600152  0.49214390  0.54098301     0.12800
H953        H  0.30284252  0.00223561  0.45333514     0.12800
C954        C  0.32278575  0.01259329  0.53308150     0.62300
F955        F  0.16047669  0.96994360  0.49243549    -0.22800
F956        F  0.17387303  0.94828435  0.43754064    -0.20200
F957        F  0.18697781  0.50525154  0.43906199    -0.19800
F958        F  0.31780002  0.98785461  0.56259073    -0.19900
F959        F  0.33989258  0.54608572  0.55008074    -0.20200
F960        F  0.34466463  0.51130786  0.50331407    -0.22900
C961        C  0.26176160  0.97241480  0.13973910    -0.05700
C962        C  0.24891009  0.49247136  0.12075211     0.00200
C963        C  0.23445814  0.50910057  0.14479118    -0.08400
C964        C  0.23403007  0.50549688  0.18759479    -0.05700
C965        C  0.24776138  0.48614442  0.20730798     0.00200
C966        C  0.26202094  0.96917567  0.18264277    -0.08300
C967        C  0.27805236  0.94813391  0.20049800     0.62100
H968        H  0.27250818  0.95996084  0.12037357     0.12800
H969        H  0.22316802  0.51837750  0.20598877     0.12800
C970        C  0.21859925  0.52970926  0.12536111     0.62300
F971        F  0.28922560  0.93357643  0.17035553    -0.22800
F972        F  0.25338037  0.92064632  0.22393527    -0.20200
F973        F  0.30711093  0.96993138  0.22423507    -0.19800
F974        F  0.19334729  0.50877477  0.09680888    -0.19900
F975        F  0.24466899  0.55953505  0.10631576    -0.20200
F976        F  0.20256674  0.54049553  0.15404685    -0.22900
C977        C  0.01763291  0.74114101  0.52701666    -0.05700
C978        C  0.49072340  0.74453442  0.54613992     0.00200
C979        C  0.46630256  0.74888028  0.52172443    -0.08400
C980        C  0.46798767  0.74654481  0.47890703    -0.05700
C981        C  0.49415274  0.74181339  0.45964019     0.00200
C982        C  0.02043211  0.74056370  0.48416250    -0.08300
C983        C  0.05211035  0.73994668  0.46582640     0.62100
H984        H  0.03656088  0.73870942  0.54610942     0.12800
H985        H  0.44861288  0.74842298  0.46008871     0.12800
C986        C  0.43973329  0.75775123  0.54029354     0.62300
F987        F  0.07694775  0.74483140  0.49532882    -0.22800
F988        F  0.06846532  0.76684330  0.43752846    -0.20200
F989        F  0.04144736  0.70776586  0.44708667    -0.19800
F990        F  0.45673452  0.78591807  0.56706695    -0.19900
F991        F  0.41389946  0.72889743  0.56099347    -0.20200
F992        F  0.42329814  0.76723323  0.51069036    -0.22900
C993        C  0.40030419  0.61763767  0.31351164    -0.05700
C994        C  0.40142480  0.64581943  0.33568411     0.00200
C995        C  0.37091621  0.64011684  0.35749472    -0.08400
C996        C  0.33998933  0.60685426  0.35466367    -0.05700
C997        C  0.33874598  0.57880655  0.33206842     0.00200
C998        C  0.36960237  0.58418156  0.31129353    -0.08300
C999        C  0.37026147  0.55518660  0.28612124     0.62100
H1000       H  0.42385202  0.62206413  0.29777102     0.12800
H1001       H  0.31652075  0.60230211  0.37076020     0.12800
C1002       C  0.37120090  0.66826972  0.38520399     0.62300
F1003       F  0.40119612  0.56760279  0.26400412    -0.22800
F1004       F  0.34249685  0.54124375  0.25855442    -0.20200
F1005       F  0.36765210  0.52882788  0.31174691    -0.19800
F1006       F  0.37364639  0.69577809  0.36190930    -0.19900
F1007       F  0.39955922  0.68084355  0.41189013    -0.20200
F1008       F  0.34080349  0.65520551  0.40848102    -0.22900
C1009       C  0.11472904  0.83160271  0.31503220    -0.05700
C1010       C  0.08650498  0.83088874  0.33642403     0.00200
C1011       C  0.09203721  0.86191323  0.35709909    -0.08400
C1012       C  0.12545561  0.89265170  0.35465548    -0.05700
C1013       C  0.15365592  0.89347005  0.33299322     0.00200
C1014       C  0.14814730  0.86227879  0.31263674    -0.08300
C1015       C  0.17660956  0.86145830  0.28677179     0.62100
H1016       H  0.11017707  0.80779092  0.29948245     0.12800
H1017       H  0.12989822  0.91648230  0.37003409     0.12800
C1018       C  0.06335841  0.86260217  0.38271835     0.62300
F1019       F  0.16411907  0.82988816  0.26571756    -0.22800
F1020       F  0.20414985  0.86554791  0.31140699    -0.20200
F1021       F  0.18881884  0.88828252  0.25823436    -0.19800
F1022       F  0.04981008  0.83490329  0.41023989    -0.19900
F1023       F  0.03665349  0.85986304  0.35753349    -0.20200
F1024       F  0.07606139  0.89362227  0.40495185    -0.22900
C1025       C  0.00758730  0.77262660  0.19448671    -0.05700
C1026       C  0.99641973  0.73982979  0.21290681     0.00200
C1027       C  0.48663012  0.70976436  0.18811712    -0.08400
C1028       C  0.48816533  0.71370426  0.14533756    -0.05700
C1029       C  0.99941304  0.74658659  0.12638635     0.00200
C1030       C  0.00980644  0.77693179  0.15167697    -0.08300
C1031       C  0.02326556  0.81382609  0.13451456     0.62100
H1032       H  0.01510245  0.79523268  0.21437333     0.12800
H1033       H  0.48060218  0.69065953  0.12628503     0.12800
C1034       C  0.47356142  0.67346494  0.20660390     0.62300
F1035       F  0.03105470  0.83868443  0.16509463    -0.22800
F1036       F  0.99790246  0.81424127  0.10950866    -0.20200
F1037       F  0.05392276  0.82411913  0.11256963    -0.19800
F1038       F  0.44604947  0.66570460  0.23319697    -0.19900
F1039       F  0.50070108  0.67278315  0.22759685    -0.20200
F1040       F  0.46143985  0.64724342  0.17699619    -0.22900
C1041       C  0.01380219  0.99629899  0.47612961    -0.05700
C1042       C  0.49016345  0.00406947  0.45554274     0.00200
C1043       C  0.46416499  0.50699196  0.47885156    -0.08400
C1044       C  0.46370241  0.50292413  0.52178949    -0.05700
C1045       C  0.48807044  0.49620416  0.54210217     0.00200
C1046       C  0.01305208  0.99191070  0.51877691    -0.08300
C1047       C  0.03845150  0.98187974  0.53830203     0.62100
H1048       H  0.03353155  0.99401302  0.45848661     0.12800
H1049       H  0.44459336  0.50566894  0.54009835     0.12800
C1050       C  0.43663123  0.51386207  0.45913470     0.62300
F1051       F  0.05461515  0.97149599  0.50930962    -0.22800
F1052       F  0.02050396  0.95397299  0.56497239    -0.20200
F1053       F  0.06455468  0.51045423  0.55932633    -0.19800
F1054       F  0.41824137  0.98857430  0.42947538    -0.19900
F1055       F  0.45284133  0.54705784  0.44166739    -0.20200
F1056       F  0.41238120  0.51256097  0.48736327    -0.22900
C1057       C  0.39786549  0.89604894  0.36258476    -0.05700
C1058       C  0.40550758  0.91795339  0.32826981     0.00200
C1059       C  0.38130186  0.90677742  0.29517001    -0.08400
C1060       C  0.34993615  0.87383739  0.29777217    -0.05700
C1061       C  0.34238126  0.85184254  0.33204330     0.00200
C1062       C  0.36647142  0.86324967  0.36526389    -0.08300
C1063       C  0.35838551  0.84135167  0.40389138     0.62100
H1064       H  0.41672026  0.90513344  0.38767458     0.12800
H1065       H  0.33106507  0.86479211  0.27273773     0.12800
C1066       C  0.38919574  0.92907361  0.25686535     0.62300
F1067       F  0.38381471  0.85842073  0.43383186    -0.22800
F1068       F  0.35687851  0.80967367  0.39499878    -0.20200
F1069       F  0.32631623  0.83483043  0.41959076    -0.19800
F1070       F  0.42128156  0.93597425  0.24076722    -0.19900
F1071       F  0.39060550  0.96061363  0.26635768    -0.20200
F1072       F  0.36363479  0.91220511  0.22700500    -0.22900
C1073       C  0.09434241  0.63048227  0.31550235    -0.05700
C1074       C  0.09189917  0.60154191  0.33709518     0.00200
C1075       C  0.12208588  0.60594984  0.35883948    -0.08400
C1076       C  0.15359691  0.63891317  0.35733544    -0.05700
C1077       C  0.15604369  0.66778766  0.33557778     0.00200
C1078       C  0.12576774  0.66344196  0.31408524    -0.08300
C1079       C  0.12654034  0.69296178  0.28868453     0.62100
H1080       H  0.07119065  0.62694250  0.29914947     0.12800
H1081       H  0.17679451  0.64249821  0.37361289     0.12800
C1082       C  0.12110480  0.57648291  0.38449671     0.62300
F1083       F  0.09614433  0.68136413  0.26556783    -0.22800
F1084       F  0.15480439  0.70629313  0.26196041    -0.20200
F1085       F  0.12945858  0.71960587  0.31419122    -0.19800
F1086       F  0.11868975  0.54993707  0.35919055    -0.19900
F1087       F  0.09243852  0.56297894  0.41064931    -0.20200
F1088       F  0.15117644  0.58822600  0.40824013    -0.22900
C1089       C  0.00841103  0.53705336  0.14044220    -0.05700
C1090       C  0.51067007  0.00928705  0.12165032     0.00200
C1091       C  0.51322515  0.98409633  0.14657080    -0.08400
C1092       C  0.51028511  0.98597147  0.18928857    -0.05700
C1093       C  0.50614411  0.01269456  0.20815962     0.00200
C1094       C  0.00643517  0.53953921  0.18328468    -0.08300
C1095       C  0.00550561  0.57120287  0.20130299     0.62100
H1096       H  0.00750892  0.55667836  0.12105950     0.12800
H1097       H  0.51081684  0.96598701  0.20836237     0.12800
C1098       C  0.52040755  0.95611250  0.12865845     0.62300
F1099       F  0.01163907  0.59642782  0.17191199    -0.22800
F1100       F  0.03135079  0.58705354  0.23103268    -0.20200
F1101       F  0.97275064  0.56057826  0.21823866    -0.19800
F1102       F  0.54833523  0.97151280  0.10150211    -0.19900
F1103       F  0.49074733  0.93059634  0.10857611    -0.20200
F1104       F  0.52923985  0.93952368  0.15871397    -0.22900
O1105       O  0.96838994  0.45102422  0.33002280    -0.74400
O1106       O  0.55676261  0.03795549  0.33617086    -0.74400
O1107       O  0.50904515  0.49292623  0.39131451    -0.74400
O1108       O  0.51587173  0.49594912  0.27449911    -0.74500
O1109       O  0.98738233  0.02618212  0.27193108    -0.74400
O1110       O  0.98053083  0.02312027  0.38941309    -0.74400
O1111       O  0.52839959  0.06834653  0.33386287    -0.74400
O1112       O  0.93966830  0.48121798  0.32727535    -0.74400
Ni1113     Ni  0.51352009  0.49344185  0.33304962     1.25400
Ni1114     Ni  0.98298961  0.02583334  0.33052821     1.25400
C1115       C  0.93948183  0.45176761  0.32800537     0.87800
C1116       C  0.55736999  0.06758588  0.33601297     0.87800
C1117       C  0.99319466  0.50693794  0.40987051     0.87800
C1118       C  0.50304625  0.51183110  0.25374169     0.87900
O1119       O  0.96455916  0.17996633  0.33641172    -0.74400
O1120       O  0.55228061  0.26770567  0.33685140    -0.74400
O1121       O  0.50787944  0.22451730  0.39525402    -0.74400
O1122       O  0.50896452  0.22341670  0.27796056    -0.74500
O1123       O  0.97972537  0.25313516  0.27687165    -0.74400
O1124       O  0.97873592  0.25416122  0.39395338    -0.74400
O1125       O  0.52297405  0.29723627  0.33568804    -0.74400
O1126       O  0.93517576  0.20943066  0.33533424    -0.74400
Ni1127     Ni  0.50942757  0.22281287  0.33666558     1.25400
Ni1128     Ni  0.97804173  0.25446345  0.33539236     1.25400
C1129       C  0.93530159  0.18014317  0.33609009     0.87800
C1130       C  0.55218319  0.29703101  0.33662376     0.87800
C1131       C  0.49371714  0.24006627  0.41407447     0.87800
C1132       C  0.49469114  0.23832794  0.25810835     0.87900
O1133       O  0.77546611  0.04485631  0.33053383    -0.74400
O1134       O  0.68762377  0.45683284  0.33141063    -0.74400
O1135       O  0.73167366  0.00219510  0.38935733    -0.74400
O1136       O  0.73169837  0.99987997  0.27224224    -0.74500
O1137       O  0.76113806  0.47067893  0.27353886    -0.74400
O1138       O  0.76128266  0.47291907  0.39094181    -0.74400
O1139       O  0.71720693  0.42761681  0.33272404    -0.74400
O1140       O  0.80480597  0.01537216  0.33185171    -0.74400
Ni1141     Ni  0.73049871  0.00191415  0.33079901     1.25400
Ni1142     Ni  0.76206469  0.47053079  0.33229557     1.25400
C1143       C  0.80473095  0.04464301  0.33114296     0.87800
C1144       C  0.68787563  0.42756962  0.33204729     0.87800
C1145       C  0.74693520  0.98846392  0.40949993     0.87800
C1146       C  0.74678128  0.98525761  0.25323353     0.87900
O1147       O  0.76270718  0.24438404  0.27522709    -0.74400
O1148       O  0.76608352  0.24477723  0.39222402    -0.74400
O1149       O  0.71970957  0.20083559  0.33474686    -0.74400
O1150       O  0.80852227  0.28845471  0.33275072    -0.74500
O1151       O  0.77948662  0.31839154  0.33366347    -0.74400
O1152       O  0.69129160  0.23120865  0.33667687    -0.74400
O1153       O  0.73754025  0.27510996  0.39411512    -0.74400
O1154       O  0.73359737  0.27406947  0.27654028    -0.74400
Ni1155     Ni  0.76526260  0.24352959  0.33365995     1.25400
Ni1156     Ni  0.73446028  0.27574841  0.33537523     1.25400
C1157       C  0.74777097  0.25916594  0.25636868     0.87800
C1158       C  0.75234878  0.25998641  0.41256091     0.87800
C1159       C  0.69068518  0.20160359  0.33556782     0.87800
C1160       C  0.80851735  0.31784696  0.33291168     0.87900
O1161       O  0.53591154  0.47528005  0.99779422    -0.74400
O1162       O  0.94845355  0.47597026  0.00086622    -0.74400
O1163       O  0.98941121  0.47346782  0.94064481    -0.74400
O1164       O  0.99448942  0.47773077  0.05787844    -0.74500
O1165       O  0.52416552  0.03639760  0.05553615    -0.74400
O1166       O  0.51869682  0.03203364  0.93828475    -0.74400
O1167       O  0.97797676  0.03472485  0.99896420    -0.74400
O1168       O  0.56522987  0.03382828  0.99495524    -0.74400
Ni1169     Ni  0.99109340  0.47352520  0.99937339     1.27800
Ni1170     Ni  0.52262670  0.03631897  0.99679924     1.25400
C1171       C  0.56519644  0.50454139  0.99651741     0.87800
C1172       C  0.94882424  0.50549810  0.00053370     0.87800
C1173       C  0.00231654  0.50215977  0.92002005     0.87800
C1174       C  0.01006921  0.50766852  0.07613949     0.87900
O1175       O  0.55673639  0.27800801  0.00110053    -0.74400
O1176       O  0.96750091  0.27502264  0.00363663    -0.74400
O1177       O  0.51308693  0.27642493  0.06108872    -0.74400
O1178       O  0.51125802  0.27677426  0.94409404    -0.74500
O1179       O  0.98366776  0.21802326  0.94358161    -0.74400
O1180       O  0.98486181  0.21791914  0.06073094    -0.74400
O1181       O  0.93973009  0.21641935  0.00261036    -0.74400
O1182       O  0.52877791  0.21934201  0.00117901    -0.74400
Ni1183     Ni  0.51312873  0.27864989  0.00256226     1.25400
Ni1184     Ni  0.98329893  0.21584893  0.00209057     1.25400
C1185       C  0.55746951  0.24902590  0.00010349     0.87800
C1186       C  0.93875140  0.24520389  0.00308402     0.87800
C1187       C  0.49918866  0.24720558  0.08052816     0.87800
C1188       C  0.49734311  0.24749603  0.92453382     0.87900
O1189       O  0.72469892  0.02794215  0.99864522    -0.74400
O1190       O  0.81334294  0.02960662  0.00191481    -0.74400
O1191       O  0.77199031  0.03233704  0.94192889    -0.74400
O1192       O  0.76603430  0.02550721  0.05875260    -0.74500
O1193       O  0.73826831  0.46682711  0.05415215    -0.74400
O1194       O  0.74342526  0.47382612  0.93719690    -0.74400
O1195       O  0.78494023  0.47102053  0.99656009    -0.74400
O1196       O  0.69646103  0.46946085  0.99466436    -0.74400
Ni1197     Ni  0.77002412  0.03093002  0.00050961     1.25400
Ni1198     Ni  0.73975327  0.46820119  0.99548325     1.25400
C1199       C  0.69576061  0.99838198  0.99627743     0.87800
C1200       C  0.81375547  0.00052749  0.99894995     0.87800
C1201       C  0.75901091  0.00426500  0.92013256     0.87800
C1202       C  0.75094690  0.99509962  0.07566818     0.87900
O1203       O  0.72270735  0.28321842  0.99941751    -0.74400
O1204       O  0.80879702  0.28030316  0.00125229    -0.74400
O1205       O  0.76624090  0.28150673  0.94177952    -0.74400
O1206       O  0.76520886  0.28211750  0.05905767    -0.74500
O1207       O  0.73480670  0.22344449  0.05903004    -0.74400
O1208       O  0.73591224  0.22262659  0.94172435    -0.74400
O1209       O  0.77860196  0.22167989  0.00110004    -0.74400
O1210       O  0.69219860  0.22455197  0.99945069    -0.74400
Ni1211     Ni  0.76683825  0.28385168  0.00038883     1.25400
Ni1212     Ni  0.73427098  0.22096432  0.00037974     1.25400
C1213       C  0.69314490  0.25439572  0.99936563     0.87800
C1214       C  0.80815052  0.25068982  0.00075903     0.87800
C1215       C  0.75121419  0.25202212  0.92254858     0.87800
C1216       C  0.74978998  0.25281189  0.07850413     0.87900
O1217       O  0.51690727  0.46453378  0.66446368    -0.74400
O1218       O  0.51476305  0.05154919  0.66739444    -0.74400
O1219       O  0.51634703  0.00739173  0.72428709    -0.74400
O1220       O  0.51629746  0.00928509  0.60744038    -0.74500
O1221       O  0.95760777  0.47934125  0.60656056    -0.74400
O1222       O  0.95751655  0.47689869  0.72452784    -0.74400
O1223       O  0.95613298  0.02106672  0.66734479    -0.74400
O1224       O  0.95827281  0.43471754  0.66402344    -0.74400
Ni1225     Ni  0.51815684  0.00924843  0.66587985     1.25400
Ni1226     Ni  0.95529161  0.47691014  0.66557852     1.25400
C1227       C  0.98771617  0.43511048  0.66369355     0.87800
C1228       C  0.98492346  0.05061157  0.66777401     0.87800
C1229       C  0.98710687  0.99196391  0.74360162     0.87800
C1230       C  0.48720406  0.99464524  0.58757871     0.87900
O1231       O  0.51825466  0.21434147  0.67018619    -0.74400
O1232       O  0.51996275  0.30287134  0.66944260    -0.74400
O1233       O  0.51879114  0.25858197  0.72815739    -0.74400
O1234       O  0.51939921  0.25854095  0.61118185    -0.74500
O1235       O  0.96069430  0.23013059  0.61065454    -0.74400
O1236       O  0.96020408  0.23063934  0.72781098    -0.74400
O1237       O  0.96133500  0.27470781  0.66884232    -0.74400
O1238       O  0.95957866  0.18598596  0.66993805    -0.74400
Ni1239     Ni  0.52116871  0.25959479  0.66973244     1.25400
Ni1240     Ni  0.95834422  0.22934359  0.66925399     1.25400
C1241       C  0.98869085  0.18551739  0.67092066     0.87800
C1242       C  0.99102786  0.30355992  0.66916309     0.87800
C1243       C  0.98940487  0.24430910  0.74745632     0.87800
C1244       C  0.99012536  0.24458334  0.59154030     0.87900
O1245       O  0.73458950  0.03897924  0.66299804    -0.74400
O1246       O  0.73200929  0.44943804  0.66623557    -0.74400
O1247       O  0.73295753  0.49501149  0.72275784    -0.74400
O1248       O  0.73245978  0.49232244  0.60624863    -0.74500
O1249       O  0.79101185  0.02087830  0.60538966    -0.74400
O1250       O  0.79161402  0.02230950  0.72329526    -0.74400
O1251       O  0.79061825  0.47782134  0.66516031    -0.74400
O1252       O  0.79324876  0.06646978  0.66371417    -0.74400
Ni1253     Ni  0.73091833  0.49304059  0.66450792     1.25400
Ni1254     Ni  0.79370738  0.02294786  0.66432929     1.25400
C1255       C  0.76459181  0.06760260  0.66348647     0.87800
C1256       C  0.76119865  0.44901210  0.66687771     0.87800
C1257       C  0.76204569  0.00786238  0.74239596     0.87800
C1258       C  0.76142729  0.00553982  0.58627826     0.87900
O1259       O  0.73354256  0.19881173  0.66579295    -0.74400
O1260       O  0.73004039  0.28463912  0.66922105    -0.74400
O1261       O  0.73282338  0.24338153  0.60923342    -0.74400
O1262       O  0.73058946  0.24006588  0.72613961    -0.74500
O1263       O  0.78936995  0.27049494  0.72792800    -0.74400
O1264       O  0.79135676  0.27450143  0.61028938    -0.74400
O1265       O  0.78860576  0.31559300  0.67092860    -0.74400
O1266       O  0.79225114  0.22948019  0.66700316    -0.74400
Ni1267     Ni  0.72973007  0.24063873  0.66759951     1.25400
Ni1268     Ni  0.79254101  0.27364453  0.66917004     1.25400
C1269       C  0.76335444  0.19989874  0.66506948     0.87800
C1270       C  0.75865252  0.31438748  0.66999231     0.87800
C1271       C  0.76229475  0.25950963  0.59019792     0.87800
C1272       C  0.75956064  0.25457513  0.74631442     0.87900
C1273       C  0.73233262  0.38497150  0.65137533    -0.05700
C1274       C  0.76091251  0.41477474  0.66918058     0.00200
C1275       C  0.78802005  0.41103363  0.68868170    -0.08400
C1276       C  0.78576468  0.37773131  0.68843184    -0.05700
C1277       C  0.75750366  0.34800951  0.66997409     0.00200
C1278       C  0.73006094  0.35162872  0.65115595    -0.08300
C1279       C  0.69885782  0.32100278  0.62983231     0.62100
H1280       H  0.71180853  0.38816935  0.63690005     0.12800
H1281       H  0.80639113  0.37465809  0.70284343     0.12800
C1282       C  0.81899659  0.44156433  0.71052964     0.62300
F1283       F  0.67774248  0.33158867  0.60981059    -0.22800
F1284       F  0.67809401  0.29583557  0.65834512    -0.20200
F1285       F  0.71075156  0.30615945  0.60092183    -0.19800
F1286       F  0.80682555  0.45729316  0.73790633    -0.19900
F1287       F  0.84102880  0.46615833  0.68223663    -0.20200
F1288       F  0.83892205  0.43056348  0.73244015    -0.22900
C1289       C  0.74269170  0.10654792  0.63760628    -0.05700
C1290       C  0.76615858  0.10244016  0.66331394     0.00200
C1291       C  0.79032264  0.13145017  0.68786322    -0.08400
C1292       C  0.78872116  0.16288006  0.68714178    -0.05700
C1293       C  0.76438447  0.16646521  0.66250870     0.00200
C1294       C  0.74202838  0.13843615  0.63587121    -0.08300
C1295       C  0.71889179  0.14267917  0.60422077     0.62100
H1296       H  0.72506648  0.08454791  0.61824575     0.12800
H1297       H  0.80644030  0.18501736  0.70621866     0.12800
C1298       C  0.81721668  0.12928720  0.71547188     0.62300
F1299       F  0.70533088  0.11532330  0.57601722    -0.22800
F1300       F  0.73851290  0.17383157  0.58289342    -0.20200
F1301       F  0.69089550  0.14314850  0.62326068    -0.19800
F1302       F  0.84207009  0.12662520  0.69189054    -0.19900
F1303       F  0.80047913  0.10021364  0.74075751    -0.20200
F1304       F  0.83493915  0.15889333  0.74011489    -0.22900
C1305       C  0.96348324  0.33872646  0.64792861    -0.05700
C1306       C  0.99148927  0.33791291  0.66807717     0.00200
C1307       C  0.51842091  0.36937381  0.68649255    -0.08400
C1308       C  0.51626171  0.40042719  0.68357182    -0.05700
C1309       C  0.98810669  0.40116412  0.66368965     0.00200
C1310       C  0.96131655  0.36973945  0.64499442    -0.08300
C1311       C  0.93098198  0.36869080  0.62090019     0.62100
H1312       H  0.94310865  0.31460669  0.63408713     0.12800
H1313       H  0.53660448  0.42455782  0.69744931     0.12800
C1314       C  0.54884228  0.37034289  0.71026496     0.62300
F1315       F  0.91169048  0.33714491  0.59992416    -0.22800
F1316       F  0.94395599  0.39559639  0.59235241    -0.20200
F1317       F  0.90818584  0.37230009  0.64721083    -0.19800
F1318       F  0.57084992  0.36564262  0.68377907    -0.19900
F1319       F  0.53593754  0.34403863  0.73957175    -0.20200
F1320       F  0.56894274  0.40225506  0.73025387    -0.22900
C1321       C  0.51108426  0.11263365  0.69106305    -0.05700
C1322       C  0.98397985  0.08423053  0.66945865     0.00200
C1323       C  0.95730940  0.08885030  0.65023640    -0.08400
C1324       C  0.96019072  0.12241352  0.65143979    -0.05700
C1325       C  0.98785756  0.15105049  0.67206961     0.00200
C1326       C  0.51305916  0.14575208  0.69371385    -0.08300
C1327       C  0.54101824  0.17413571  0.72104382     0.62100
H1328       H  0.53068502  0.10851907  0.70651803     0.12800
H1329       H  0.94068560  0.12663969  0.63594245     0.12800
C1330       C  0.92606818  0.05897349  0.62805603     0.62300
F1331       F  0.55812090  0.16104918  0.74490705    -0.22800
F1332       F  0.52548851  0.18738377  0.74723332    -0.20200
F1333       F  0.56613230  0.20114400  0.69739888    -0.19800
F1334       F  0.90484191  0.03333837  0.65587414    -0.19900
F1335       F  0.93785273  0.04443298  0.59869156    -0.20200
F1336       F  0.90541595  0.07038937  0.60853469    -0.22900
C1337       C  0.77226741  0.23923887  0.85825011    -0.05700
C1338       C  0.75214405  0.25196836  0.87751194     0.00200
C1339       C  0.73341136  0.26424554  0.85373047    -0.08400
C1340       C  0.73690896  0.26500131  0.81088866    -0.05700
C1341       C  0.75805777  0.25345455  0.79152476     0.00200
C1342       C  0.77535508  0.23947176  0.81533423    -0.08300
C1343       C  0.79556319  0.22345166  0.79548459     0.62100
H1344       H  0.78577311  0.22930456  0.87724042     0.12800
H1345       H  0.72311729  0.27470508  0.79203769     0.12800
C1346       C  0.70885962  0.27515000  0.87358563     0.62300
F1347       F  0.80678415  0.20770300  0.82398884    -0.22800
F1348       F  0.82495036  0.24932581  0.77558593    -0.20200
F1349       F  0.77401454  0.19787398  0.76757865    -0.19800
F1350       F  0.72783731  0.30407287  0.89874587    -0.19900
F1351       F  0.68385820  0.24747956  0.89665109    -0.20200
F1352       F  0.69132880  0.28401182  0.84477996    -0.22900
C1353       C  0.73578680  0.47719459  0.85243740    -0.05700
C1354       C  0.76128536  0.00641673  0.87459663     0.00200
C1355       C  0.78818375  0.03561630  0.85281350    -0.08400
C1356       C  0.78758392  0.03468084  0.80968153    -0.05700
C1357       C  0.76131696  0.00596548  0.78775347     0.00200
C1358       C  0.73540171  0.47615519  0.80944796    -0.08300
C1359       C  0.70803365  0.44271148  0.78782809     0.62100
H1360       H  0.71558155  0.45499736  0.86917984     0.12800
H1361       H  0.80744002  0.05683502  0.79258625     0.12800
C1362       C  0.81777951  0.06754649  0.87434100     0.62300
F1363       F  0.68980855  0.41522180  0.81500442    -0.22800
F1364       F  0.72442032  0.43186619  0.75975193    -0.20200
F1365       F  0.68363399  0.44883982  0.76800221    -0.19800
F1366       F  0.83423947  0.05678874  0.90239920    -0.19900
F1367       F  0.80428531  0.08627929  0.89412398    -0.20200
F1368       F  0.84321340  0.09024137  0.84711940    -0.22900
C1369       C  0.90429332  0.27425666  0.98513144    -0.05700
C1370       C  0.90430181  0.24465748  0.00189754     0.00200
C1371       C  0.87205076  0.21632536  0.01686551    -0.08400
C1372       C  0.84157159  0.21967294  0.01598607    -0.05700
C1373       C  0.84183665  0.24971861  0.00010010     0.00200
C1374       C  0.87370520  0.27721553  0.98328555    -0.08300
C1375       C  0.87577520  0.30931167  0.96240431     0.62100
H1376       H  0.92877538  0.29534336  0.97300774     0.12800
H1377       H  0.81703738  0.19862060  0.02804446     0.12800
C1378       C  0.86941833  0.18278975  0.03417262     0.62300
F1379       F  0.90776378  0.32957114  0.94287516    -0.22800
F1380       F  0.87208577  0.33056433  0.99112603    -0.20200
F1381       F  0.84950510  0.29862852  0.93307632    -0.19800
F1382       F  0.89381945  0.19111865  0.06531953    -0.19900
F1383       F  0.87555842  0.16464604  0.00345496    -0.20200
F1384       F  0.83635029  0.16033999  0.05018534    -0.22900
C1385       C  0.62116824  0.27867217  0.01728275    -0.05700
C1386       C  0.59206746  0.25014146  0.99826545     0.00200
C1387       C  0.59697478  0.22422650  0.97759870    -0.08400
C1388       C  0.63046474  0.22703187  0.97871286    -0.05700
C1389       C  0.65937799  0.25506124  0.99859936     0.00200
C1390       C  0.65486388  0.28183480  0.01774933    -0.08300
C1391       C  0.68493007  0.31323422  0.03950275     0.62100
H1392       H  0.61716148  0.29853617  0.03237711     0.12800
H1393       H  0.63437062  0.20706865  0.96370718     0.12800
C1394       C  0.56755662  0.19414711  0.95344144     0.62300
F1395       F  0.67361195  0.33379657  0.05950624    -0.22800
F1396       F  0.71018820  0.33448291  0.01132406    -0.20200
F1397       F  0.69991356  0.30159512  0.06844959    -0.19800
F1398       F  0.55231104  0.20729372  0.92675114    -0.19900
F1399       F  0.54226428  0.17041071  0.97994343    -0.20200
F1400       F  0.57987312  0.17588948  0.93037058    -0.22900
C1401       C  0.52108551  0.26966133  0.81240032    -0.05700
C1402       C  0.98991489  0.24425054  0.79300276     0.00200
C1403       C  0.96143340  0.21931068  0.81739540    -0.08400
C1404       C  0.96519843  0.22162474  0.86024321    -0.05700
C1405       C  0.99614694  0.24739661  0.87934572     0.00200
C1406       C  0.52495057  0.27150263  0.85515097    -0.08300
C1407       C  0.56007280  0.29836237  0.87397214     0.62100
H1408       H  0.54268184  0.28850460  0.79370633     0.12800
H1409       H  0.94364198  0.20335940  0.87944438     0.12800
C1410       C  0.92746846  0.18982557  0.79900150     0.62300
F1411       F  0.58606691  0.31467506  0.84460099    -0.22800
F1412       F  0.57135099  0.28184992  0.90129159    -0.20200
F1413       F  0.55648860  0.32425673  0.89415862    -0.19800
F1414       F  0.93515661  0.17056782  0.77132867    -0.19900
F1415       F  0.90916418  0.20390596  0.77953171    -0.20200
F1416       F  0.90545061  0.16664843  0.82853847    -0.22900
C1417       C  0.87454657  0.02446793  0.02564299    -0.05700
C1418       C  0.84808095  0.00121248  0.99861350     0.00200
C1419       C  0.85528308  0.48006019  0.97156225    -0.08400
C1420       C  0.88855675  0.48239416  0.97344470    -0.05700
C1421       C  0.91487173  0.50543162  0.00064736     0.00200
C1422       C  0.90790238  0.02688973  0.02732587    -0.08300
C1423       C  0.93494002  0.05119090  0.05852925     0.62100
H1424       H  0.86868544  0.04051332  0.04588940     0.12800
H1425       H  0.89447108  0.46631885  0.95328527     0.12800
C1426       C  0.82862211  0.45594709  0.93984405     0.62300
F1427       F  0.92118077  0.06623370  0.08474557    -0.22800
F1428       F  0.96353871  0.07821730  0.03873044    -0.20200
F1429       F  0.94609819  0.03224803  0.08197316    -0.19800
F1430       F  0.81654958  0.47457239  0.91723118    -0.19900
F1431       F  0.80053157  0.42790692  0.95907791    -0.20200
F1432       F  0.84318790  0.44228320  0.91279019    -0.22900
C1433       C  0.59861082  0.47339175  0.98218155    -0.05700
C1434       C  0.59916308  0.50400576  0.99669692     0.00200
C1435       C  0.63139711  0.03213169  0.01215195    -0.08400
C1436       C  0.66179578  0.02875377  0.01121596    -0.05700
C1437       C  0.66143208  0.99832999  0.99626738     0.00200
C1438       C  0.62892539  0.46974944  0.98186701    -0.08300
C1439       C  0.62564583  0.43545707  0.96597608     0.62100
H1440       H  0.57384549  0.45198080  0.97087224     0.12800
H1441       H  0.68644286  0.05022570  0.02268805     0.12800
C1442       C  0.63410693  0.06543788  0.03056356     0.62300
F1443       F  0.59224553  0.41267229  0.95079415    -0.22800
F1444       F  0.63206494  0.41825184  0.99747223    -0.20200
F1445       F  0.64941346  0.44242042  0.93453852    -0.19800
F1446       F  0.60874637  0.05661020  0.06055936    -0.19900
F1447       F  0.62952118  0.08486317  0.00025102    -0.20200
F1448       F  0.66667817  0.08684663  0.04857997    -0.22900
C1449       C  0.49234505  0.46938273  0.85444122    -0.05700
C1450       C  0.99777976  0.50029651  0.87457455     0.00200
C1451       C  0.99704113  0.02741854  0.85109224    -0.08400
C1452       C  0.99271397  0.02314606  0.80834387    -0.05700
C1453       C  0.98811343  0.49269252  0.78866245     0.00200
C1454       C  0.48735863  0.46508215  0.81176999    -0.08300
C1455       C  0.48172576  0.43153080  0.79106028     0.62100
H1456       H  0.49240796  0.44856605  0.87237520     0.12800
H1457       H  0.99324800  0.04389784  0.78959925     0.12800
C1458       C  0.99991390  0.06044274  0.87050066     0.62300
F1459       F  0.48156545  0.40759843  0.81890444    -0.22800
F1460       F  0.50846701  0.43957766  0.76322222    -0.20200
F1461       F  0.44969724  0.41561157  0.77067927    -0.19800
F1462       F  0.03350057  0.08146126  0.88609001    -0.19900
F1463       F  0.97532818  0.05116355  0.90152050    -0.20200
F1464       F  0.99357158  0.08038777  0.84245131    -0.22900
C1465       C  0.72991455  0.25454708  0.52602903    -0.05700
C1466       C  0.76169299  0.26082010  0.54446372     0.00200
C1467       C  0.79055141  0.26692208  0.51886063    -0.08400
C1468       C  0.78604175  0.26612347  0.47602798    -0.05700
C1469       C  0.75442711  0.26041032  0.45795962     0.00200
C1470       C  0.72566483  0.25417795  0.48334140    -0.08300
C1471       C  0.69017905  0.24604734  0.46572799     0.62100
H1472       H  0.70806427  0.25016765  0.54551951     0.12800
H1473       H  0.80761952  0.27052711  0.45599889     0.12800
C1474       C  0.82591029  0.27407002  0.53594602     0.62300
F1475       F  0.66458359  0.23580866  0.49573679    -0.22800
F1476       F  0.67875966  0.21882168  0.43752568    -0.20200
F1477       F  0.69321787  0.27574302  0.44689692    -0.19800
F1478       F  0.82115024  0.24699843  0.56179448    -0.19900
F1479       F  0.84165920  0.30573094  0.55713261    -0.20200
F1480       F  0.84892694  0.27650595  0.50531920    -0.22900
C1481       C  0.74871156  0.23013737  0.19164031    -0.05700
C1482       C  0.74688645  0.25810968  0.21069672     0.00200
C1483       C  0.74600689  0.28436055  0.18585394    -0.08400
C1484       C  0.74708329  0.28140703  0.14296063    -0.05700
C1485       C  0.74871750  0.25330572  0.12403755     0.00200
C1486       C  0.74984891  0.22723862  0.14883954    -0.08300
C1487       C  0.75357876  0.19711821  0.13075825     0.62100
H1488       H  0.74916323  0.21016499  0.21078084     0.12800
H1489       H  0.74628922  0.30109064  0.12362964     0.12800
C1490       C  0.74456964  0.31573856  0.20394865     0.62300
F1491       F  0.75902643  0.17792179  0.16070448    -0.22800
F1492       F  0.78213792  0.21041937  0.10446791    -0.20200
F1493       F  0.72320981  0.17411773  0.10972123    -0.19800
F1494       F  0.77195898  0.33341834  0.23145934    -0.19900
F1495       F  0.71269706  0.30423251  0.22362604    -0.20200
F1496       F  0.74761044  0.33964294  0.17420230    -0.22900
C1497       C  0.72723207  0.99413979  0.52196539    -0.05700
C1498       C  0.75954005  0.00231713  0.54063083     0.00200
C1499       C  0.78739057  0.50491494  0.51559306    -0.08400
C1500       C  0.78173741  0.49972539  0.47302972    -0.05700
C1501       C  0.74960418  0.99201685  0.45470107     0.00200
C1502       C  0.72155812  0.98858130  0.47958796    -0.08300
C1503       C  0.68535541  0.97794567  0.46199819     0.62100
H1504       H  0.70600452  0.99216319  0.54098354     0.12800
H1505       H  0.80284028  0.50224917  0.45333220     0.12800
C1506       C  0.82278644  0.51260898  0.53307739     0.62300
F1507       F  0.66047325  0.46995245  0.49243775    -0.22800
F1508       F  0.67386753  0.44829053  0.43754353    -0.20200
F1509       F  0.68698699  0.00527760  0.43906170    -0.19800
F1510       F  0.81780573  0.48786931  0.56258305    -0.19900
F1511       F  0.83989190  0.04607135  0.55008313    -0.20200
F1512       F  0.84465240  0.01128716  0.50331559    -0.22900
C1513       C  0.76176965  0.47242663  0.13974173    -0.05700
C1514       C  0.74890074  0.99245803  0.12075136     0.00200
C1515       C  0.73444008  0.00908041  0.14478764    -0.08400
C1516       C  0.73401451  0.00548108  0.18759159    -0.05700
C1517       C  0.74775466  0.98613778  0.20730766     0.00200
C1518       C  0.76202769  0.46918814  0.18264549    -0.08300
C1519       C  0.77806555  0.44815300  0.20050302     0.62100
H1520       H  0.77252312  0.45997829  0.12037774     0.12800
H1521       H  0.72314650  0.01835764  0.20598377     0.12800
C1522       C  0.71856855  0.02967614  0.12535390     0.62300
F1523       F  0.78924630  0.43360105  0.17036219    -0.22800
F1524       F  0.75339566  0.42066184  0.22393800    -0.20200
F1525       F  0.80712042  0.46995453  0.22424288    -0.19800
F1526       F  0.69331855  0.00873194  0.09680492    -0.19900
F1527       F  0.74463014  0.05950423  0.10630367    -0.20200
F1528       F  0.70252972  0.04045689  0.15403761    -0.22900
C1529       C  0.51764181  0.24114624  0.52700584    -0.05700
C1530       C  0.99073007  0.24454269  0.54614659     0.00200
C1531       C  0.96630956  0.24889050  0.52173266    -0.08400
C1532       C  0.96799120  0.24655207  0.47891519    -0.05700
C1533       C  0.99415386  0.24181776  0.45964674     0.00200
C1534       C  0.52044089  0.24056892  0.48415148    -0.08300
C1535       C  0.55212211  0.23995801  0.46581483     0.62100
H1536       H  0.53657220  0.23871947  0.54609789     0.12800
H1537       H  0.94861618  0.24843080  0.46009829     0.12800
C1538       C  0.93974540  0.25776796  0.54030320     0.62300
F1539       F  0.57696124  0.24484700  0.49531685    -0.22800
F1540       F  0.56847311  0.26685511  0.43751670    -0.20200
F1541       F  0.54146417  0.20777824  0.44707499    -0.19800
F1542       F  0.95675221  0.28593604  0.56707380    -0.19900
F1543       F  0.91391014  0.22891771  0.56100656    -0.20200
F1544       F  0.92331135  0.26725192  0.51070069    -0.22900
C1545       C  0.90030108  0.11764050  0.31351429    -0.05700
C1546       C  0.90142130  0.14582172  0.33568767     0.00200
C1547       C  0.87091209  0.14011880  0.35749706    -0.08400
C1548       C  0.83998506  0.10685655  0.35466386    -0.05700
C1549       C  0.83874218  0.07880934  0.33206804     0.00200
C1550       C  0.86959913  0.08418461  0.31129439    -0.08300
C1551       C  0.87025866  0.05519019  0.28612147     0.62100
H1552       H  0.92384917  0.12206714  0.29777461     0.12800
H1553       H  0.81651578  0.10230405  0.37075971     0.12800
C1554       C  0.87119645  0.16827074  0.38520771     0.62300
F1555       F  0.90119405  0.06760666  0.26400575    -0.22800
F1556       F  0.84249498  0.04124853  0.25855340    -0.20200
F1557       F  0.86764801  0.02883050  0.31174638    -0.19800
F1558       F  0.87364399  0.19578074  0.36191456    -0.19900
F1559       F  0.89955346  0.18084238  0.41189556    -0.20200
F1560       F  0.84079798  0.15520614  0.40848288    -0.22900
C1561       C  0.61473261  0.33160484  0.31503018    -0.05700
C1562       C  0.58650409  0.33089073  0.33641207     0.00200
C1563       C  0.59203137  0.36191664  0.35707972    -0.08400
C1564       C  0.62544941  0.39265598  0.35463939    -0.05700
C1565       C  0.65365429  0.39347425  0.33298772     0.00200
C1566       C  0.64815073  0.36228170  0.31263874    -0.08300
C1567       C  0.67661908  0.36145947  0.28678759     0.62100
H1568       H  0.61018484  0.30779268  0.29948640     0.12800
H1569       H  0.62988825  0.41648716  0.37001286     0.12800
C1570       C  0.56334771  0.36260667  0.38268803     0.62300
F1571       F  0.66413360  0.32988789  0.26573783    -0.22800
F1572       F  0.70415343  0.36555065  0.31143498    -0.20200
F1573       F  0.68883536  0.38828166  0.25824704    -0.19800
F1574       F  0.54979643  0.33491088  0.41021380    -0.19900
F1575       F  0.53664612  0.35986342  0.35749403    -0.20200
F1576       F  0.57604571  0.39362898  0.40491603    -0.22900
C1577       C  0.50759631  0.27262493  0.19447784    -0.05700
C1578       C  0.49642214  0.23982650  0.21289681     0.00200
C1579       C  0.98662104  0.20976580  0.18812334    -0.08400
C1580       C  0.98815658  0.21370678  0.14534393    -0.05700
C1581       C  0.49941604  0.24658483  0.12637684     0.00200
C1582       C  0.50981654  0.27693093  0.15166822    -0.08300
C1583       C  0.52328491  0.31382707  0.13450692     0.62100
H1584       H  0.51511568  0.29523120  0.21436506     0.12800
H1585       H  0.98058615  0.19066051  0.12629041     0.12800
C1586       C  0.97354334  0.17346468  0.20660944     0.62300
F1587       F  0.53108359  0.33868674  0.16508792    -0.22800
F1588       F  0.49792457  0.31425138  0.10950453    -0.20200
F1589       F  0.55393882  0.32411140  0.11255863    -0.19800
F1590       F  0.94603320  0.16571117  0.23320269    -0.19900
F1591       F  0.00067873  0.17277450  0.22760222    -0.20200
F1592       F  0.96141576  0.14724327  0.17700128    -0.22900
C1593       C  0.51376928  0.49626267  0.47612779    -0.05700
C1594       C  0.99017428  0.50405440  0.45553934     0.00200
C1595       C  0.96415843  0.00696684  0.47884552    -0.08400
C1596       C  0.96369856  0.00290411  0.52178402    -0.05700
C1597       C  0.98808545  0.99621409  0.54210132     0.00200
C1598       C  0.51301731  0.49187206  0.51877468    -0.08300
C1599       C  0.53839370  0.48180924  0.53829746     0.62100
H1600       H  0.53348468  0.49395411  0.45848330     0.12800
H1601       H  0.94457527  0.00562845  0.54008947     0.12800
C1602       C  0.93660130  0.01379813  0.45912208     0.62300
F1603       F  0.55453502  0.47140092  0.50930355    -0.22800
F1604       F  0.52042786  0.45390850  0.56497043    -0.20200
F1605       F  0.56453107  0.01044357  0.55933267    -0.19800
F1606       F  0.91824364  0.48851224  0.42946191    -0.19900
F1607       F  0.95278190  0.04699449  0.44165723    -0.20200
F1608       F  0.91233293  0.01246449  0.48734519    -0.22900
C1609       C  0.89788258  0.39603166  0.36258259    -0.05700
C1610       C  0.90552306  0.41793741  0.32826909     0.00200
C1611       C  0.88131483  0.40676360  0.29517192    -0.08400
C1612       C  0.84995008  0.37382304  0.29777371    -0.05700
C1613       C  0.84239669  0.35182693  0.33204322     0.00200
C1614       C  0.86648765  0.36323323  0.36526291    -0.08300
C1615       C  0.85840066  0.34133616  0.40389134     0.62100
H1616       H  0.91673882  0.40511547  0.38767182     0.12800
H1617       H  0.83107755  0.36477906  0.27274080     0.12800
C1618       C  0.88920388  0.42906344  0.25687100     0.62300
F1619       F  0.88382966  0.35840562  0.43383190    -0.22800
F1620       F  0.85689243  0.30965732  0.39500058    -0.20200
F1621       F  0.82633154  0.33481640  0.41958983    -0.19800
F1622       F  0.92128855  0.43596736  0.24076604    -0.19900
F1623       F  0.89061266  0.46060166  0.26637130    -0.20200
F1624       F  0.86364009  0.41219708  0.22701304    -0.22900
C1625       C  0.59434148  0.13049063  0.31551036    -0.05700
C1626       C  0.59189414  0.10154714  0.33709998     0.00200
C1627       C  0.62207997  0.10594900  0.35884122    -0.08400
C1628       C  0.65359460  0.13890913  0.35733589    -0.05700
C1629       C  0.65604562  0.16778665  0.33558099     0.00200
C1630       C  0.62577009  0.16344751  0.31409311    -0.08300
C1631       C  0.62654624  0.19297141  0.28869724     0.62100
H1632       H  0.57119062  0.12695553  0.29916010     0.12800
H1633       H  0.67679142  0.14248928  0.37361029     0.12800
C1634       C  0.62109441  0.07647912  0.38449689     0.62300
F1635       F  0.59614886  0.18137996  0.26558491    -0.22800
F1636       F  0.65480772  0.20629970  0.26196954    -0.20200
F1637       F  0.62947173  0.21961628  0.31420787    -0.19800
F1638       F  0.61867376  0.04993155  0.35918954    -0.19900
F1639       F  0.59242924  0.06297899  0.41065100    -0.20200
F1640       F  0.65116626  0.08821734  0.40823868    -0.22900
C1641       C  0.50840644  0.03705511  0.14043861    -0.05700
C1642       C  0.01067517  0.50928757  0.12164894     0.00200
C1643       C  0.01323187  0.48409508  0.14656444    -0.08400
C1644       C  0.01029293  0.48596649  0.18928284    -0.05700
C1645       C  0.00615156  0.51268749  0.20815865     0.00200
C1646       C  0.50642924  0.03954456  0.18328081    -0.08300
C1647       C  0.50550009  0.07121012  0.20129361     0.62100
H1648       H  0.50750561  0.05667845  0.12105255     0.12800
H1649       H  0.01082595  0.46598061  0.20835372     0.12800
C1650       C  0.02041506  0.45611367  0.12864606     0.62300
F1651       F  0.51163229  0.09643165  0.17189845    -0.22800
F1652       F  0.53134630  0.08706419  0.23102164    -0.20200
F1653       F  0.47274574  0.06058738  0.21822992    -0.19800
F1654       F  0.04834243  0.47151732  0.10148964    -0.19900
F1655       F  0.99075499  0.43059899  0.10856207    -0.20200
F1656       F  0.02924830  0.43952238  0.15869753    -0.22900
O1657       O  0.96838695  0.95102378  0.33002542    -0.74400
O1658       O  0.55676407  0.53794979  0.33617041    -0.74400
O1659       O  0.50904401  0.99293583  0.39131720    -0.74400
O1660       O  0.51586974  0.99595164  0.27450162    -0.74500
O1661       O  0.98738520  0.52618413  0.27193271    -0.74400
O1662       O  0.98053443  0.52311901  0.38941410    -0.74400
O1663       O  0.52839997  0.56833989  0.33386537    -0.74400
O1664       O  0.93966513  0.98121723  0.32727510    -0.74400
Ni1665     Ni  0.51351820  0.99344783  0.33305243     1.25400
Ni1666     Ni  0.98299305  0.52583377  0.33052958     1.25400
C1667       C  0.93947869  0.95176691  0.32800712     0.87800
C1668       C  0.55737074  0.56757985  0.33601407     0.87800
C1669       C  0.99319202  0.00694052  0.40987052     0.87800
C1670       C  0.50304545  0.01183352  0.25374193     0.87900
O1671       O  0.96455669  0.67996447  0.33641313    -0.74400
O1672       O  0.55228114  0.76770898  0.33685294    -0.74400
O1673       O  0.50787892  0.72452078  0.39525546    -0.74400
O1674       O  0.50896455  0.72342046  0.27796210    -0.74500
O1675       O  0.97972523  0.75313449  0.27687420    -0.74400
O1676       O  0.97873447  0.75415882  0.39395595    -0.74400
O1677       O  0.52297536  0.79724050  0.33568982    -0.74400
O1678       O  0.93517435  0.70942990  0.33533595    -0.74400
Ni1679     Ni  0.50942748  0.72281667  0.33666707     1.25400
Ni1680     Ni  0.97804106  0.75446204  0.33539499     1.25400
C1681       C  0.93529954  0.68014209  0.33609149     0.87800
C1682       C  0.55218412  0.79703450  0.33662551     0.87800
C1683       C  0.49371635  0.74006947  0.41407593     0.87800
C1684       C  0.49469129  0.73833159  0.25810952     0.87900
O1685       O  0.77546447  0.54485465  0.33053607    -0.74400
O1686       O  0.68762404  0.95683590  0.33141064    -0.74400
O1687       O  0.73167223  0.50219168  0.38935831    -0.74400
O1688       O  0.73169802  0.49987909  0.27224337    -0.74500
O1689       O  0.76113740  0.97067879  0.27353849    -0.74400
O1690       O  0.76128287  0.97292127  0.39094136    -0.74400
O1691       O  0.71720614  0.92761864  0.33272435    -0.74400
O1692       O  0.80480536  0.51537151  0.33185320    -0.74400
Ni1693     Ni  0.73049770  0.50191180  0.33080013     1.25400
Ni1694     Ni  0.76206451  0.97053193  0.33229515     1.25400
C1695       C  0.80472963  0.54464199  0.33114504     0.87800
C1696       C  0.68787530  0.92757241  0.33204729     0.87800
C1697       C  0.74693432  0.48846094  0.40950060     0.87800
C1698       C  0.74678193  0.48525796  0.25323429     0.87900
O1699       O  0.76270535  0.74438109  0.27522834    -0.74400
O1700       O  0.76608077  0.74477687  0.39222520    -0.74400
O1701       O  0.71970846  0.70083315  0.33474846    -0.74400
O1702       O  0.80851922  0.78845417  0.33275170    -0.74500
O1703       O  0.77948197  0.81838939  0.33366262    -0.74400
O1704       O  0.69128858  0.73120440  0.33667647    -0.74400
O1705       O  0.73753558  0.77510778  0.39411456    -0.74400
O1706       O  0.73359383  0.77406493  0.27653951    -0.74400
Ni1707     Ni  0.76526051  0.74352815  0.33366127     1.25400
Ni1708     Ni  0.73445626  0.77574512  0.33537447     1.25400
C1709       C  0.74776808  0.75916144  0.25636901     0.87800
C1710       C  0.75234486  0.75998535  0.41256121     0.87800
C1711       C  0.69068343  0.70159991  0.33556847     0.87800
C1712       C  0.80851332  0.81784593  0.33291205     0.87900
O1713       O  0.53590201  0.97526345  0.99779509    -0.74400
O1714       O  0.94844673  0.97596073  0.00086685    -0.74400
O1715       O  0.98940187  0.97345354  0.94064567    -0.74400
O1716       O  0.99448310  0.97772144  0.05787924    -0.74500
O1717       O  0.52417011  0.53640921  0.05553993    -0.74400
O1718       O  0.51871371  0.53205586  0.93828856    -0.74400
O1719       O  0.97798162  0.53473434  0.99896542    -0.74400
O1720       O  0.56524045  0.53384520  0.99496314    -0.74400
Ni1721     Ni  0.99108570  0.97351354  0.99937429     1.27800
Ni1722     Ni  0.52263683  0.53633566  0.99680328     1.25400
C1723       C  0.56518660  0.00452502  0.99651366     0.87800
C1724       C  0.94881884  0.00548929  0.00053329     0.87800
C1725       C  0.00230574  0.00214470  0.92001966     0.87800
C1726       C  0.01006449  0.00765991  0.07613867     0.87900
O1727       O  0.55673574  0.77800218  0.00110180    -0.74400
O1728       O  0.96750213  0.77502097  0.00363715    -0.74400
O1729       O  0.51308586  0.77642108  0.06108801    -0.74400
O1730       O  0.51125792  0.77676783  0.94409381    -0.74500
O1731       O  0.98367096  0.71802209  0.94358339    -0.74400
O1732       O  0.98486167  0.71791761  0.06073292    -0.74400
O1733       O  0.93973179  0.71641779  0.00260990    -0.74400
O1734       O  0.52877678  0.71933612  0.00118271    -0.74400
Ni1735     Ni  0.51312812  0.77864451  0.00256168     1.25400
Ni1736     Ni  0.98330044  0.71584744  0.00209242     1.25400
C1737       C  0.55746848  0.74901979  0.00010670     0.87800
C1738       C  0.93875271  0.74520206  0.00308327     0.87800
C1739       C  0.49918659  0.74720226  0.08052845     0.87800
C1740       C  0.49734312  0.74748942  0.92453414     0.87900
O1741       O  0.72470396  0.52794804  0.99864590    -0.74400
O1742       O  0.81334532  0.52960844  0.00191522    -0.74400
O1743       O  0.77199318  0.53233899  0.94192897    -0.74400
O1744       O  0.76603818  0.52551164  0.05875334    -0.74500
O1745       O  0.73826652  0.96682283  0.05415053    -0.74400
O1746       O  0.74342426  0.97382431  0.93719520    -0.74400
O1747       O  0.78493929  0.97101877  0.99655795    -0.74400
O1748       O  0.69645850  0.96945511  0.99466248    -0.74400
Ni1749     Ni  0.77002771  0.53093351  0.00050998     1.25400
Ni1750     Ni  0.73975181  0.96819783  0.99548141     1.25400
C1751       C  0.69576490  0.49838871  0.99627910     0.87800
C1752       C  0.81375699  0.50052887  0.99895163     0.87800
C1753       C  0.75901280  0.50426638  0.92013339     0.87800
C1754       C  0.75094988  0.49510415  0.07566934     0.87900
O1755       O  0.72270529  0.78321150  0.99942146    -0.74400
O1756       O  0.80879589  0.78029783  0.00125235    -0.74400
O1757       O  0.76623902  0.78150269  0.94178147    -0.74400
O1758       O  0.76520750  0.78210954  0.05905934    -0.74500
O1759       O  0.73480595  0.72343655  0.05902991    -0.74400
O1760       O  0.73591135  0.72262258  0.94172371    -0.74400
O1761       O  0.77860159  0.72167457  0.00109794    -0.74400
O1762       O  0.69219736  0.72454496  0.99945207    -0.74400
Ni1763     Ni  0.76683664  0.78384558  0.00039080     1.25400
Ni1764     Ni  0.73427023  0.72095822  0.00037925     1.25400
C1765       C  0.69314314  0.75438846  0.99936925     0.87800
C1766       C  0.80814992  0.75068475  0.00075742     0.87800
C1767       C  0.75121262  0.75201879  0.92254913     0.87800
C1768       C  0.74978841  0.75280353  0.07850497     0.87900
O1769       O  0.51688707  0.96452184  0.66446847    -0.74400
O1770       O  0.51478249  0.55156138  0.66738170    -0.74400
O1771       O  0.51637723  0.50741296  0.72427785    -0.74400
O1772       O  0.51630757  0.50928849  0.60743146    -0.74500
O1773       O  0.95760257  0.97933916  0.60655802    -0.74400
O1774       O  0.95750134  0.97688858  0.72452558    -0.74400
O1775       O  0.95614313  0.52107267  0.66734569    -0.74400
O1776       O  0.95826286  0.93471146  0.66401893    -0.74400
Ni1777     Ni  0.51817695  0.50926072  0.66587039     1.25400
Ni1778     Ni  0.95528145  0.97690406  0.66557574     1.25400
C1779       C  0.98770640  0.93510465  0.66369161     0.87800
C1780       C  0.98493348  0.55061761  0.66777133     0.87800
C1781       C  0.98712358  0.49197613  0.74360061     0.87800
C1782       C  0.48721070  0.49464487  0.58757670     0.87900
O1783       O  0.51825488  0.71434548  0.67018704    -0.74400
O1784       O  0.51994778  0.80286744  0.66944464    -0.74400
O1785       O  0.51878407  0.75858163  0.72815810    -0.74400
O1786       O  0.51939173  0.75854140  0.61118324    -0.74500
O1787       O  0.96069000  0.73012683  0.61065726    -0.74400
O1788       O  0.96020165  0.73063685  0.72781396    -0.74400
O1789       O  0.96132740  0.77470266  0.66884482    -0.74400
O1790       O  0.95957937  0.68598502  0.66994121    -0.74400
Ni1791     Ni  0.52116134  0.75959516  0.66973360     1.25400
Ni1792     Ni  0.95834076  0.72934034  0.66925689     1.25400
C1793       C  0.98869286  0.68551896  0.67092333     0.87800
C1794       C  0.99101923  0.80355579  0.66916517     0.87800
C1795       C  0.98940295  0.74430868  0.74745851     0.87800
C1796       C  0.99012092  0.74458074  0.59154264     0.87900
O1797       O  0.73458829  0.53897810  0.66299831    -0.74400
O1798       O  0.73200793  0.94943787  0.66623487    -0.74400
O1799       O  0.73295701  0.99501177  0.72275719    -0.74400
O1800       O  0.73245993  0.99232325  0.60624815    -0.74500
O1801       O  0.79101168  0.52087877  0.60538967    -0.74400
O1802       O  0.79161455  0.52231019  0.72329525    -0.74400
O1803       O  0.79061691  0.97782009  0.66516049    -0.74400
O1804       O  0.79324759  0.56646980  0.66371407    -0.74400
Ni1805     Ni  0.73091821  0.99304113  0.66450737     1.25400
Ni1806     Ni  0.79370750  0.52294854  0.66432923     1.25400
C1807       C  0.76459023  0.56760186  0.66348643     0.87800
C1808       C  0.76119693  0.94901122  0.66687749     0.87800
C1809       C  0.76204639  0.50786250  0.74239635     0.87800
C1810       C  0.76142706  0.50553947  0.58627849     0.87900
O1811       O  0.73353871  0.69880983  0.66579276    -0.74400
O1812       O  0.73003645  0.78463745  0.66922141    -0.74400
O1813       O  0.73281935  0.74337991  0.60923361    -0.74400
O1814       O  0.73058578  0.74006411  0.72613998    -0.74500
O1815       O  0.78936632  0.77049305  0.72792794    -0.74400
O1816       O  0.79135273  0.77449985  0.61028944    -0.74400
O1817       O  0.78860192  0.81559115  0.67092892    -0.74400
O1818       O  0.79224730  0.72947845  0.66700277    -0.74400
Ni1819     Ni  0.72972616  0.74063695  0.66759972     1.25400
Ni1820     Ni  0.79253714  0.77364273  0.66917001     1.25400
C1821       C  0.76335066  0.69989694  0.66506907     0.87800
C1822       C  0.75864874  0.81438574  0.66999257     0.87800
C1823       C  0.76229069  0.75950820  0.59019806     0.87800
C1824       C  0.75955710  0.75457339  0.74631452     0.87900
C1825       C  0.73233181  0.88497124  0.65137141    -0.05700
C1826       C  0.76091002  0.91477349  0.66918044     0.00200
C1827       C  0.78801567  0.91103125  0.68868484    -0.08400
C1828       C  0.78575963  0.87772862  0.68843554    -0.05700
C1829       C  0.75750026  0.84800789  0.66997411     0.00200
C1830       C  0.73006003  0.85162843  0.65115137    -0.08300
C1831       C  0.69886004  0.82100394  0.62982176     0.62100
H1832       H  0.71180881  0.88817006  0.63689293     0.12800
H1833       H  0.80638440  0.87465435  0.70285009     0.12800
C1834       C  0.81899113  0.94156118  0.71053512     0.62300
F1835       F  0.67774850  0.83159155  0.60979432    -0.22800
F1836       F  0.67809140  0.79583540  0.65833080    -0.20200
F1837       F  0.71075796  0.80616165  0.60091495    -0.19800
F1838       F  0.80681883  0.95728976  0.73791048    -0.19900
F1839       F  0.84102524  0.96615561  0.68224368    -0.20200
F1840       F  0.83891499  0.93055945  0.73244744    -0.22900
C1841       C  0.74268978  0.60654672  0.63760525    -0.05700
C1842       C  0.76615619  0.60243902  0.66331377     0.00200
C1843       C  0.79031934  0.63144889  0.68786384    -0.08400
C1844       C  0.78871730  0.66287847  0.68714231    -0.05700
C1845       C  0.76438105  0.66646356  0.66250836     0.00200
C1846       C  0.74202599  0.63843471  0.63587000    -0.08300
C1847       C  0.71889021  0.64267789  0.60421855     0.62100
H1848       H  0.72506502  0.58454645  0.61824374     0.12800
H1849       H  0.80643590  0.68501588  0.70622012     0.12800
C1850       C  0.81721293  0.62928599  0.71547342     0.62300
F1851       F  0.70533021  0.61532226  0.57601468    -0.22800
F1852       F  0.73851180  0.67383050  0.58289176    -0.20200
F1853       F  0.69089334  0.64314693  0.62325729    -0.19800
F1854       F  0.84206701  0.62662441  0.69189294    -0.19900
F1855       F  0.80047502  0.60021220  0.74075871    -0.20200
F1856       F  0.83493468  0.65889199  0.74011676    -0.22900
C1857       C  0.96347720  0.83872245  0.64792181    -0.05700
C1858       C  0.99147872  0.83790744  0.66807962     0.00200
C1859       C  0.51839034  0.86935854  0.68651423    -0.08400
C1860       C  0.51623402  0.90041299  0.68358719    -0.05700
C1861       C  0.98809729  0.90115866  0.66368805     0.00200
C1862       C  0.96131107  0.86973565  0.64498585    -0.08300
C1863       C  0.93098218  0.86868964  0.62088192     0.62100
H1864       H  0.94310564  0.81460345  0.63407452     0.12800
H1865       H  0.53657150  0.92454084  0.69747301     0.12800
C1866       C  0.54879589  0.87032044  0.71031476     0.62300
F1867       F  0.91169513  0.83714567  0.59990093    -0.22800
F1868       F  0.94396307  0.89559794  0.59233743    -0.20200
F1869       F  0.90818033  0.87229697  0.64718495    -0.19800
F1870       F  0.57082191  0.86562865  0.68385034    -0.19900
F1871       F  0.53587110  0.84400675  0.73961037    -0.20200
F1872       F  0.56888227  0.90222631  0.73032138    -0.22900
C1873       C  0.51109728  0.61264295  0.69106123    -0.05700
C1874       C  0.98398904  0.58423596  0.66945632     0.00200
C1875       C  0.95731814  0.58885470  0.65023371    -0.08400
C1876       C  0.96019722  0.62241681  0.65143891    -0.05700
C1877       C  0.98786227  0.65105354  0.67207095     0.00200
C1878       C  0.51306713  0.64575899  0.69371506    -0.08300
C1879       C  0.54102039  0.67414203  0.72105092     0.62100
H1880       H  0.53069878  0.60852969  0.70651795     0.12800
H1881       H  0.94069204  0.62664220  0.63594157     0.12800
C1882       C  0.92607884  0.55897807  0.62805064     0.62300
F1883       F  0.55812328  0.66105664  0.74491561    -0.22800
F1884       F  0.52548395  0.68738389  0.74723914    -0.20200
F1885       F  0.56613518  0.70115475  0.69741152    -0.19800
F1886       F  0.90485156  0.53334140  0.65586667    -0.19900
F1887       F  0.93786616  0.54443971  0.59868680    -0.20200
F1888       F  0.90542681  0.57039356  0.60852800    -0.22900
C1889       C  0.77225901  0.73922982  0.85824900    -0.05700
C1890       C  0.75214240  0.75196662  0.87751226     0.00200
C1891       C  0.73341654  0.76425249  0.85373192    -0.08400
C1892       C  0.73691275  0.76500733  0.81088985    -0.05700
C1893       C  0.75805478  0.75345290  0.79152481     0.00200
C1894       C  0.77534645  0.73946343  0.81533302    -0.08300
C1895       C  0.79554893  0.72343796  0.79548172     0.62100
H1896       H  0.78575983  0.72928986  0.87723797     0.12800
H1897       H  0.72312591  0.77471667  0.79203984     0.12800
C1898       C  0.70887346  0.77516765  0.87358831     0.62300
F1899       F  0.80676618  0.70768506  0.82398470    -0.22800
F1900       F  0.82493797  0.74930921  0.77558286    -0.20200
F1901       F  0.77399686  0.69786259  0.76757554    -0.19800
F1902       F  0.72785896  0.80409016  0.89874648    -0.19900
F1903       F  0.68386818  0.74750200  0.89665606    -0.20200
F1904       F  0.69134695  0.78403558  0.84478345    -0.22900
C1905       C  0.73578628  0.97719363  0.85243643    -0.05700
C1906       C  0.76128724  0.50641701  0.87459734     0.00200
C1907       C  0.78818727  0.53561496  0.85281391    -0.08400
C1908       C  0.78758669  0.53467962  0.80968198    -0.05700
C1909       C  0.76131818  0.50596541  0.78775401     0.00200
C1910       C  0.73540130  0.97615458  0.80944708    -0.08300
C1911       C  0.70803413  0.94271060  0.78782692     0.62100
H1912       H  0.71558205  0.95499572  0.86917850     0.12800
H1913       H  0.80744418  0.55683375  0.79258620     0.12800
C1914       C  0.81778564  0.56754306  0.87434132     0.62300
F1915       F  0.68980914  0.91522075  0.81500307    -0.22800
F1916       F  0.72442174  0.93186602  0.75975125    -0.20200
F1917       F  0.68363420  0.94883818  0.76800046    -0.19800
F1918       F  0.83424202  0.55678197  0.90240048    -0.19900
F1919       F  0.80429546  0.58627995  0.89412318    -0.20200
F1920       F  0.84322159  0.59023504  0.84711975    -0.22900
C1921       C  0.90429410  0.77425497  0.98513262    -0.05700
C1922       C  0.90430261  0.74465474  0.00189536     0.00200
C1923       C  0.87205065  0.71632010  0.01685805    -0.08400
C1924       C  0.84157114  0.71966710  0.01597915    -0.05700
C1925       C  0.84183637  0.74971409  0.00009737     0.00200
C1926       C  0.87370539  0.77721279  0.98328588    -0.08300
C1927       C  0.87577519  0.80930966  0.96240687     0.62100
H1928       H  0.92877687  0.79534361  0.97301198     0.12800
H1929       H  0.81703674  0.69861340  0.02803449     0.12800
C1930       C  0.86941725  0.68278204  0.03415862     0.62300
F1931       F  0.90776406  0.82957041  0.94287882    -0.22800
F1932       F  0.87208473  0.83056063  0.99113008    -0.20200
F1933       F  0.84950562  0.79862753  0.93307832    -0.19800
F1934       F  0.89381485  0.69110645  0.06530862    -0.19900
F1935       F  0.87556147  0.66464379  0.00343785    -0.20200
F1936       F  0.83634755  0.66032880  0.05016497    -0.22900
C1937       C  0.62116574  0.77866274  0.01729212    -0.05700
C1938       C  0.59206599  0.75013453  0.99827029     0.00200
C1939       C  0.59697372  0.72422087  0.97760091    -0.08400
C1940       C  0.63046354  0.72702605  0.97871501    -0.05700
C1941       C  0.65937599  0.75505340  0.99860488     0.00200
C1942       C  0.65486099  0.78182458  0.01775978    -0.08300
C1943       C  0.68492579  0.81322026  0.03951988     0.62100
H1944       H  0.61715831  0.79852567  0.03238945     0.12800
H1945       H  0.63437015  0.70706392  0.96370602     0.12800
C1946       C  0.56755614  0.69414339  0.95344079     0.62300
F1947       F  0.67360631  0.83377907  0.05952905    -0.22800
F1948       F  0.71018578  0.83447382  0.01134566    -0.20200
F1949       F  0.69990737  0.80157609  0.06846314    -0.19800
F1950       F  0.55231245  0.70729240  0.92675107    -0.19900
F1951       F  0.54226220  0.67040577  0.97994041    -0.20200
F1952       F  0.57987285  0.67588642  0.93036905    -0.22900
C1953       C  0.52107875  0.76965972  0.81240011    -0.05700
C1954       C  0.98991412  0.74425018  0.79300481     0.00200
C1955       C  0.96143546  0.71930699  0.81739797    -0.08400
C1956       C  0.96520174  0.72162094  0.86024560    -0.05700
C1957       C  0.99614904  0.74739567  0.87934749     0.00200
C1958       C  0.52494605  0.77150010  0.85515038    -0.08300
C1959       C  0.56006755  0.79836375  0.87396966     0.62100
H1960       H  0.54267224  0.78850604  0.79370573     0.12800
H1961       H  0.94364704  0.70335302  0.87944718     0.12800
C1962       C  0.92747259  0.68981828  0.79900466     0.62300
F1963       F  0.58605951  0.81467995  0.84459687    -0.22800
F1964       F  0.57135128  0.78185469  0.90128698    -0.20200
F1965       F  0.55647941  0.82425506  0.89415789    -0.19800
F1966       F  0.93516469  0.67056427  0.77133069    -0.19900
F1967       F  0.90916324  0.70389382  0.77953631    -0.20200
F1968       F  0.90545788  0.66663878  0.82854188    -0.22900
C1969       C  0.87455061  0.52447613  0.02563886    -0.05700
C1970       C  0.84808253  0.50121374  0.99861629     0.00200
C1971       C  0.85528308  0.98006420  0.97155267    -0.08400
C1972       C  0.88855529  0.98239496  0.97343636    -0.05700
C1973       C  0.91486752  0.00542495  0.00064642     0.00200
C1974       C  0.90790759  0.52690061  0.02732103    -0.08300
C1975       C  0.93494723  0.55120893  0.05851836     0.62100
H1976       H  0.86869060  0.54052505  0.04588044     0.12800
H1977       H  0.89447064  0.96632327  0.95327235     0.12800
C1978       C  0.82862540  0.95596043  0.93982605     0.62300
F1979       F  0.92118910  0.56625621  0.08472964    -0.22800
F1980       F  0.96354383  0.57823209  0.03871297    -0.20200
F1981       F  0.94610822  0.53227173  0.08196845    -0.19800
F1982       F  0.81655679  0.97459292  0.91722063    -0.19900
F1983       F  0.80053180  0.92791570  0.95904991    -0.20200
F1984       F  0.84319358  0.94230301  0.91276662    -0.22900
C1985       C  0.59860399  0.97337766  0.98218038    -0.05700
C1986       C  0.59915421  0.00399119  0.99669354     0.00200
C1987       C  0.63140655  0.53214421  0.01215679    -0.08400
C1988       C  0.66180368  0.52876361  0.01122067    -0.05700
C1989       C  0.66143778  0.49833926  0.99627000     0.00200
C1990       C  0.62892016  0.96973793  0.98186618    -0.08300
C1991       C  0.62564270  0.93544576  0.96597770     0.62100
H1992       H  0.57383873  0.95196487  0.97087244     0.12800
H1993       H  0.68645115  0.55023374  0.02269408     0.12800
C1994       C  0.63411863  0.56545098  0.03056957     0.62300
F1995       F  0.59224245  0.91265844  0.95079750    -0.22800
F1996       F  0.63206428  0.91824337  0.99747506    -0.20200
F1997       F  0.64940977  0.94240895  0.93453954    -0.19800
F1998       F  0.60875848  0.55662419  0.06056569    -0.19900
F1999       F  0.62953413  0.58487773  0.00025786    -0.20200
F2000       F  0.66669034  0.58685795  0.04858588    -0.22900
C2001       C  0.49233773  0.96936423  0.85443975    -0.05700
C2002       C  0.99776420  0.00027978  0.87457526     0.00200
C2003       C  0.99707874  0.52744464  0.85108675    -0.08400
C2004       C  0.99275347  0.52317122  0.80833839    -0.05700
C2005       C  0.98809348  0.99267616  0.78866381     0.00200
C2006       C  0.48734658  0.96506296  0.81176895    -0.08300
C2007       C  0.48173590  0.93152151  0.79105473     0.62100
H2008       H  0.49242322  0.94855698  0.87237019     0.12800
H2009       H  0.99330241  0.54392892  0.78958987     0.12800
C2010       C  0.99997235  0.56047991  0.87048932     0.62300
F2011       F  0.48159702  0.90759688  0.81889467    -0.22800
F2012       F  0.50847848  0.93958777  0.76321256    -0.20200
F2013       F  0.44970534  0.91558465  0.77067786    -0.19800
F2014       F  0.03355869  0.58148011  0.88608866    -0.19900
F2015       F  0.97538119  0.55121656  0.90150024    -0.20200
F2016       F  0.99365571  0.58043836  0.84243315    -0.22900
C2017       C  0.72991015  0.75454536  0.52602932    -0.05700
C2018       C  0.76168893  0.76081912  0.54446391     0.00200
C2019       C  0.79054765  0.76692222  0.51886076    -0.08400
C2020       C  0.78603806  0.76612401  0.47602818    -0.05700
C2021       C  0.75442306  0.76040984  0.45795989     0.00200
C2022       C  0.72566039  0.75417624  0.48334165    -0.08300
C2023       C  0.69017409  0.74604387  0.46572827     0.62100
H2024       H  0.70805989  0.75016506  0.54551958     0.12800
H2025       H  0.80761583  0.77052835  0.45599927     0.12800
C2026       C  0.82590681  0.77407069  0.53594584     0.62300
F2027       F  0.66457863  0.73580454  0.49573719    -0.22800
F2028       F  0.67875567  0.71881795  0.43752647    -0.20200
F2029       F  0.69321141  0.77573870  0.44689660    -0.19800
F2030       F  0.82114737  0.74699884  0.56179346    -0.19900
F2031       F  0.84165510  0.80573124  0.55713316    -0.20200
F2032       F  0.84892372  0.77650773  0.50531875    -0.22900
C2033       C  0.74870335  0.73012798  0.19164235    -0.05700
C2034       C  0.74688292  0.75810337  0.21069729     0.00200
C2035       C  0.74600765  0.78435574  0.18585341    -0.08400
C2036       C  0.74708419  0.78140108  0.14296040    -0.05700
C2037       C  0.74871434  0.75329710  0.12403845     0.00200
C2038       C  0.74984053  0.72722783  0.14884167    -0.08300
C2039       C  0.75356456  0.69710354  0.13076192     0.62100
H2040       H  0.74915158  0.71015434  0.21078420     0.12800
H2041       H  0.74629380  0.80108624  0.12362882     0.12800
C2042       C  0.74457534  0.81573679  0.20394678     0.62300
F2043       F  0.75900688  0.67790437  0.16070932    -0.22800
F2044       F  0.78212437  0.71040009  0.10447281    -0.20200
F2045       F  0.72319466  0.67410671  0.10972396    -0.19800
F2046       F  0.77196442  0.83341343  0.23145851    -0.19900
F2047       F  0.71270289  0.80423541  0.22362269    -0.20200
F2048       F  0.74762108  0.83964258  0.17419970    -0.22900
C2049       C  0.72723060  0.49413561  0.52196594    -0.05700
C2050       C  0.75953967  0.50231614  0.54063107     0.00200
C2051       C  0.78738990  0.00491322  0.51559310    -0.08400
C2052       C  0.78173713  0.99972512  0.47302959    -0.05700
C2053       C  0.74960338  0.49201396  0.45470160     0.00200
C2054       C  0.72155665  0.48857649  0.47958854    -0.08300
C2055       C  0.68535329  0.47793841  0.46199881     0.62100
H2056       H  0.70600280  0.49215721  0.54098377     0.12800
H2057       H  0.80283972  0.00224723  0.45333209     0.12800
C2058       C  0.82278396  0.01260230  0.53307811     0.62300
F2059       F  0.66047537  0.96995997  0.49243707    -0.22800
F2060       F  0.67386841  0.94829831  0.43754176    -0.20200
F2061       F  0.68698299  0.50526890  0.43906109    -0.19800
F2062       F  0.81779937  0.98786130  0.56258371    -0.19900
F2063       F  0.83989078  0.54607822  0.55008210    -0.20200
F2064       F  0.84465640  0.51129718  0.50331448    -0.22900
C2065       C  0.76176469  0.97242097  0.13974120    -0.05700
C2066       C  0.74890410  0.49246257  0.12075246     0.00200
C2067       C  0.73444121  0.50908261  0.14478897    -0.08400
C2068       C  0.73401522  0.50548238  0.18759283    -0.05700
C2069       C  0.74775650  0.48613987  0.20730847     0.00200
C2070       C  0.76202366  0.96918374  0.18264505    -0.08300
C2071       C  0.77806045  0.94814782  0.20050320     0.62100
H2072       H  0.77251694  0.95997072  0.12037705     0.12800
H2073       H  0.72314542  0.51835721  0.20598536     0.12800
C2074       C  0.71856722  0.52967607  0.12535531     0.62300
F2075       F  0.78923923  0.93359375  0.17036272    -0.22800
F2076       F  0.75339048  0.92065815  0.22393988    -0.20200
F2077       F  0.80711644  0.96994931  0.22424156    -0.19800
F2078       F  0.69331689  0.50873000  0.09680762    -0.19900
F2079       F  0.74462703  0.55950432  0.10630346    -0.20200
F2080       F  0.70252809  0.54045623  0.15403930    -0.22900
C2081       C  0.51763471  0.74114239  0.52700846    -0.05700
C2082       C  0.99072539  0.74453864  0.54614907     0.00200
C2083       C  0.96630676  0.74888878  0.52173448    -0.08400
C2084       C  0.96798878  0.74655013  0.47891706    -0.05700
C2085       C  0.99415010  0.74181305  0.45964940     0.00200
C2086       C  0.52043563  0.74056664  0.48415425    -0.08300
C2087       C  0.55211616  0.73995335  0.46581921     0.62100
H2088       H  0.53656353  0.73871358  0.54610146     0.12800
H2089       H  0.94861552  0.74843113  0.46009982     0.12800
C2090       C  0.93974471  0.75776947  0.54030437     0.62300
F2091       F  0.57695318  0.74483907  0.49532261    -0.22800
F2092       F  0.56847034  0.76685118  0.43752258    -0.20200
F2093       F  0.54145642  0.70777369  0.44707813    -0.19800
F2094       F  0.95675374  0.78593832  0.56707343    -0.19900
F2095       F  0.91390855  0.72892105  0.56100934    -0.20200
F2096       F  0.92331156  0.76725399  0.51070131    -0.22900
C2097       C  0.90029882  0.61764004  0.31351496    -0.05700
C2098       C  0.90141913  0.64582102  0.33568883     0.00200
C2099       C  0.87091031  0.64011789  0.35749921    -0.08400
C2100       C  0.83998337  0.60685551  0.35466636    -0.05700
C2101       C  0.83874048  0.57880851  0.33207003     0.00200
C2102       C  0.86959717  0.58418408  0.31129554    -0.08300
C2103       C  0.87025684  0.55518982  0.28612245     0.62100
H2104       H  0.92384682  0.62206684  0.29777480     0.12800
H2105       H  0.81651427  0.60230276  0.37076288     0.12800
C2106       C  0.87119512  0.66826973  0.38521042     0.62300
F2107       F  0.90119181  0.56760664  0.26400582    -0.22800
F2108       F  0.84249261  0.54124753  0.25855516    -0.20200
F2109       F  0.86764732  0.52883058  0.31174735    -0.19800
F2110       F  0.87364197  0.69577963  0.36191767    -0.19900
F2111       F  0.89955278  0.68084159  0.41189735    -0.20200
F2112       F  0.84079719  0.65520494  0.40848661    -0.22900
C2113       C  0.61472988  0.83161114  0.31502004    -0.05700
C2114       C  0.58650489  0.83089377  0.33641358     0.00200
C2115       C  0.59203493  0.86191646  0.35709133    -0.08400
C2116       C  0.62545253  0.89265624  0.35465016    -0.05700
C2117       C  0.65365395  0.89347762  0.33298732     0.00200
C2118       C  0.64814721  0.86228874  0.31262662    -0.08300
C2119       C  0.67661079  0.86147250  0.28675984     0.62100
H2120       H  0.61017955  0.80780117  0.29946802     0.12800
H2121       H  0.62989373  0.91648511  0.37003121     0.12800
C2122       C  0.56335464  0.86260211  0.38271098     0.62300
F2123       F  0.66412183  0.82990499  0.26570034    -0.22800
F2124       F  0.70415073  0.86556016  0.31139433    -0.20200
F2125       F  0.68882029  0.88830017  0.25822677    -0.19800
F2126       F  0.54980745  0.83490202  0.41023084    -0.19900
F2127       F  0.53664934  0.85986225  0.35752626    -0.20200
F2128       F  0.57605542  0.89362103  0.40494637    -0.22900
C2129       C  0.50758625  0.77262439  0.19447645    -0.05700
C2130       C  0.49642097  0.73982838  0.21289756     0.00200
C2131       C  0.98662673  0.70976589  0.18812538    -0.08400
C2132       C  0.98816244  0.71370685  0.14534597    -0.05700
C2133       C  0.49941354  0.74658322  0.12637706     0.00200
C2134       C  0.50980519  0.77692865  0.15166659    -0.08300
C2135       C  0.52326253  0.81382226  0.13450292     0.62100
H2136       H  0.51509996  0.79523047  0.21436217     0.12800
H2137       H  0.98059744  0.69066153  0.12629227     0.12800
C2138       C  0.97355521  0.67346568  0.20661119     0.62300
F2139       F  0.53104949  0.83868086  0.16508208    -0.22800
F2140       F  0.49789914  0.81423522  0.10949547    -0.20200
F2141       F  0.55392056  0.82411661  0.11255921    -0.19800
F2142       F  0.94604354  0.66570697  0.23320404    -0.19900
F2143       F  0.00069339  0.67278104  0.22760415    -0.20200
F2144       F  0.96143211  0.64724466  0.17700280    -0.22900
C2145       C  0.51377939  0.99628894  0.47613000    -0.05700
C2146       C  0.99017326  0.00405914  0.45553950     0.00200
C2147       C  0.96416318  0.50696858  0.47884567    -0.08400
C2148       C  0.96370343  0.50290677  0.52178425    -0.05700
C2149       C  0.98808599  0.49621031  0.54210101     0.00200
C2150       C  0.51302786  0.99189726  0.51877686    -0.08300
C2151       C  0.53841603  0.98185003  0.53829945     0.62100
H2152       H  0.53350049  0.99399010  0.45848531     0.12800
H2153       H  0.94458378  0.50563695  0.54009023     0.12800
C2154       C  0.93660954  0.51380543  0.45912268     0.62300
F2155       F  0.55457383  0.97146142  0.50930488    -0.22800
F2156       F  0.52045830  0.95394132  0.56496450    -0.20200
F2157       F  0.56452160  0.51039921  0.55932227    -0.19800
F2158       F  0.91823913  0.98850459  0.42946037    -0.19900
F2159       F  0.95279436  0.54700147  0.44165690    -0.20200
F2160       F  0.91234373  0.51247680  0.48734627    -0.22900
C2161       C  0.89787904  0.89603029  0.36258407    -0.05700
C2162       C  0.90551968  0.91793664  0.32827098     0.00200
C2163       C  0.88131093  0.90676379  0.29517437    -0.08400
C2164       C  0.84994598  0.87382335  0.29777577    -0.05700
C2165       C  0.84239241  0.85182650  0.33204456     0.00200
C2166       C  0.86648347  0.86323216  0.36526418    -0.08300
C2167       C  0.85839570  0.84133498  0.40389265     0.62100
H2168       H  0.91673505  0.90511332  0.38767274     0.12800
H2169       H  0.83107332  0.86478006  0.27274287     0.12800
C2170       C  0.88919956  0.92906471  0.25687444     0.62300
F2171       F  0.88382498  0.85840357  0.43383314    -0.22800
F2172       F  0.85688582  0.80965535  0.39500202    -0.20200
F2173       F  0.82632709  0.83481678  0.41959118    -0.19800
F2174       F  0.92128473  0.93597037  0.24076932    -0.19900
F2175       F  0.89060695  0.96060202  0.26637635    -0.20200
F2176       F  0.86363620  0.91219862  0.22701601    -0.22900
C2177       C  0.59434083  0.63048456  0.31551114    -0.05700
C2178       C  0.59189445  0.60154155  0.33710077     0.00200
C2179       C  0.62208089  0.60594423  0.35884131    -0.08400
C2180       C  0.65359465  0.63890506  0.35733628    -0.05700
C2181       C  0.65604463  0.66778217  0.33558159     0.00200
C2182       C  0.62576882  0.66344181  0.31409328    -0.08300
C2183       C  0.62654426  0.69296469  0.28869601     0.62100
H2184       H  0.57118895  0.62694859  0.29916048     0.12800
H2185       H  0.67679257  0.64248607  0.37361104     0.12800
C2186       C  0.62109697  0.57647423  0.38449515     0.62300
F2187       F  0.59614699  0.68137192  0.26558311    -0.22800
F2188       F  0.65480599  0.70629302  0.26196866    -0.20200
F2189       F  0.62946874  0.71960984  0.31420539    -0.19800
F2190       F  0.61867804  0.54992837  0.35918603    -0.19900
F2191       F  0.59243161  0.56297160  0.41064909    -0.20200
F2192       F  0.65116890  0.58821309  0.40823695    -0.22900
C2193       C  0.50840643  0.53705902  0.14044147    -0.05700
C2194       C  0.01067149  0.00928076  0.12164818     0.00200
C2195       C  0.01322909  0.98408947  0.14656496    -0.08400
C2196       C  0.01029009  0.98596191  0.18928336    -0.05700
C2197       C  0.00614904  0.01268360  0.20815799     0.00200
C2198       C  0.50642695  0.53954485  0.18328366    -0.08300
C2199       C  0.50548994  0.57120552  0.20129930     0.62100
H2200       H  0.50750523  0.55668362  0.12105706     0.12800
H2201       H  0.01082330  0.96597657  0.20835519     0.12800
C2202       C  0.02041433  0.95610905  0.12864782     0.62300
F2203       F  0.51161981  0.59642840  0.17190689    -0.22800
F2204       F  0.53133304  0.58706083  0.23103047    -0.20200
F2205       F  0.47273289  0.56057523  0.21823242    -0.19800
F2206       F  0.04834185  0.97151360  0.10149167    -0.19900
F2207       F  0.99075521  0.93059297  0.10856374    -0.20200
F2208       F  0.02924866  0.93951937  0.15870018    -0.22900
loop_ 
_geom_bond_atom_site_label_1 
_geom_bond_atom_site_label_2 
_geom_bond_distance 
_geom_bond_site_symmetry_2 
_ccdc_geom_bond_type 
O1           C11   1.281       .  A
O1        Ni1113   1.923       .  S
O2           C12   1.281       .  A
O2         Ni561   1.925   1_545  S
O3         C1117   1.282   1_455  A
O3           Ni9   1.912       .  S
O4           C14   1.282       .  A
O4           Ni9   1.915       .  S
O5         C1670   1.281       .  A
O5          Ni10   1.922       .  S
O6          C565   1.281       .  A
O6          Ni10   1.926       .  S
O7           C12   1.285       .  A
O7        Ni1114   1.931   1_455  S
O8           C11   1.283       .  A
O8         Ni562   1.929       .  S
Ni9        O1105   1.923   1_455  S
Ni9         O554   1.925       .  S
Ni9       Ni1666   2.381   1_455  S
Ni10       O1111   1.931       .  S
Ni10        O560   1.929   1_545  S
Ni10      Ni1665   2.381   1_545  S
C11         C506   1.485       .  S
C12         C522   1.500       .  S
C13        O1107   1.282       .  A
C13         O558   1.281       .  A
C13         C490   1.497       .  S
C14        O1661   1.281   1_455  A
C14        C1645   1.493       .  S
O15          C25   1.282       .  A
O15       Ni1127   1.923       .  S
O16          C26   1.283       .  A
O16         Ni23   1.923       .  S
O17          C27   1.280   1_455  A
O17         Ni23   1.917       .  S
O18          C28   1.280   1_455  A
O18         Ni23   1.917       .  S
O19        C1132   1.281       .  A
O19         Ni24   1.914       .  S
O20        C1131   1.281       .  A
O20         Ni24   1.912       .  S
O21          C26   1.281       .  A
O21       Ni1128   1.923   1_455  S
O22          C25   1.282       .  A
O22         Ni24   1.927       .  S
Ni23       O1119   1.923   1_455  S
Ni23      Ni1128   2.383   1_455  S
Ni24       O1125   1.923       .  S
Ni24      Ni1127   2.383       .  S
C25         C442   1.494       .  S
C26         C458   1.493       .  S
C27        O1124   1.281       .  A
C27        C1533   1.489       .  S
C28        O1123   1.281       .  A
C28         C474   1.478       .  S
O29          C39   1.284       .  A
O29         Ni37   1.927       .  S
O30          C40   1.284       .  A
O30        Ni589   1.928       .  S
O31          C41   1.279   1_545  A
O31         Ni37   1.912       .  S
O32          C42   1.283       .  A
O32         Ni37   1.916   1_565  S
O33         C594   1.279       .  A
O33         Ni38   1.919       .  S
O34         C593   1.282       .  A
O34         Ni38   1.919       .  S
O35          C40   1.281       .  A
O35         Ni38   1.924       .  S
O36          C39   1.280       .  A
O36        Ni590   1.920   1_545  S
Ni37        O582   1.928   1_545  S
Ni37       Ni590   2.380   1_545  S
Ni38        O588   1.920       .  S
Ni38       Ni589   2.380       .  S
C39         C445   1.493       .  S
C40         C461   1.497       .  S
C41         O586   1.282       .  A
C41         C397   1.482       .  S
C42         O585   1.279       .  A
C42         C413   1.500       .  S
O43          C53   1.281       .  A
O43         Ni51   1.913       .  S
O44          C54   1.280       .  A
O44         Ni51   1.913       .  S
O45          C55   1.286       .  A
O45         Ni51   1.936       .  S
O46          C56   1.284       .  A
O46         Ni51   1.933       .  S
O47          C56   1.281       .  A
O47         Ni52   1.923       .  S
O48          C55   1.281       .  A
O48         Ni52   1.922       .  S
O49          C54   1.282       .  A
O49         Ni52   1.924       .  S
O50          C53   1.281       .  A
O50         Ni52   1.922       .  S
Ni51        Ni52   2.383       .  S
C53         C378   1.492       .  S
C54         C365   1.485       .  S
C55         C525   1.500       .  S
C56         C509   1.487       .  S
O57          C67   1.283       .  A
O57       Ni1169   1.922   1_455  S
O58          C68   1.282       .  A
O58         Ni65   1.919   1_554  S
O59          C69   1.282       .  A
O59         Ni65   1.919       .  S
O60          C70   1.280       .  A
O60         Ni65   1.917   1_554  S
O61        C1726   1.282       .  A
O61         Ni66   1.919   1_554  S
O62        C1725   1.280       .  A
O62         Ni66   1.918       .  S
O63         C620   1.280   1_556  A
O63       Ni1170   1.919       .  S
O64         C619   1.280       .  A
O64         Ni66   1.919       .  S
Ni65       O1161   1.922       .  S
Ni65      Ni1722   2.382       .  S
Ni66       O1167   1.919   1_455  S
Ni66      Ni1721   2.382   1_445  S
C67         O616   1.280       .  A
C67         C330   1.496       .  S
C68         O615   1.280   1_554  A
C68         C317   1.482       .  S
C69        O1718   1.280       .  A
C69         C346   1.494       .  S
C70        O1717   1.282       .  A
C70         C538   1.487       .  S
O71          C81   1.282       .  A
O71         Ni79   1.920       .  S
O72          C82   1.283       .  A
O72       Ni1183   1.920       .  S
O73          C83   1.278   1_455  A
O73         Ni79   1.914       .  S
O74          C84   1.279   1_455  A
O74         Ni79   1.911   1_556  S
O75        C1188   1.281       .  A
O75         Ni80   1.913   1_556  S
O76        C1187   1.283       .  A
O76         Ni80   1.916       .  S
O77          C82   1.279       .  A
O77         Ni80   1.916       .  S
O78          C81   1.280       .  A
O78       Ni1184   1.916   1_455  S
Ni79       O1176   1.920   1_455  S
Ni79      Ni1184   2.381   1_455  S
Ni80       O1182   1.916       .  S
Ni80      Ni1183   2.381       .  S
C81         C282   1.489   1_554  S
C82         C266   1.494       .  S
C83        O1180   1.283       .  A
C83         C477   1.497       .  S
C84        O1179   1.281       .  A
C84        C1405   1.476       .  S
O85          C95   1.284   1_545  A
O85         Ni93   1.920   1_556  S
O86          C96   1.283   1_554  A
O86         Ni93   1.923       .  S
O87          C97   1.279       .  A
O87         Ni93   1.914   1_556  S
O88          C98   1.279   1_545  A
O88         Ni93   1.914       .  S
O89         C650   1.281       .  A
O89         Ni94   1.917   1_554  S
O90         C649   1.283       .  A
O90         Ni94   1.916       .  S
O91         C648   1.280       .  A
O91         Ni94   1.917       .  S
O92         C647   1.280       .  A
O92         Ni94   1.920       .  S
Ni93       Ni646   2.383   1_544  S
Ni94       Ni645   2.383   1_556  S
C95         O644   1.280       .  A
C95         C333   1.499       .  S
C96         O643   1.280   1_545  A
C96         C314   1.485       .  S
C97         O642   1.283   1_545  A
C97         C250   1.490       .  S
C98         O641   1.281       .  A
C98         C410   1.476       .  S
O99         C109   1.279       .  A
O99        Ni107   1.915   1_556  S
O100        C110   1.280       .  A
O100       Ni107   1.915       .  S
O101        C111   1.280       .  A
O101       Ni107   1.916   1_556  S
O102        C112   1.282       .  A
O102       Ni107   1.917       .  S
O103        C112   1.280       .  A
O103       Ni108   1.917       .  S
O104        C111   1.280       .  A
O104       Ni108   1.917   1_556  S
O105        C110   1.283       .  A
O105       Ni108   1.922       .  S
O106        C109   1.283       .  A
O106       Ni108   1.921   1_556  S
Ni107      Ni108   2.384       .  S
C109        C285   1.490       .  S
C110        C269   1.494       .  S
C111        C234   1.471       .  S
C112        C381   1.488       .  S
O113       C1227   1.284   1_455  A
O113       Ni673   1.927       .  S
O114       C1228   1.285   1_455  A
O114       Ni121   1.926       .  S
O115       C1229   1.278   1_445  A
O115       Ni121   1.909       .  S
O116        C126   1.278   1_445  A
O116       Ni121   1.910       .  S
O117       C1782   1.284       .  A
O117       Ni122   1.930       .  S
O118        C677   1.282       .  A
O118       Ni122   1.927       .  S
O119        C124   1.278       .  A
O119       Ni674   1.911   1_545  S
O120        C123   1.278       .  A
O120       Ni122   1.912       .  S
Ni121       O665   1.927   1_545  S
Ni121     Ni1778   2.385   1_445  S
Ni122       O671   1.911       .  S
Ni122     Ni1777   2.385       .  S
C123       O1217   1.284       .  A
C123        C205   1.491       .  S
C124       O1218   1.285       .  A
C124        C218   1.490       .  S
C125       O1219   1.278   1_565  A
C125        O670   1.282       .  A
C125        C901   1.472       .  S
C126       O1773   1.284       .  A
C126       C1597   1.486       .  S
O127       C1241   1.280   1_455  A
O127       Ni135   1.916       .  S
O128       C1242   1.280   1_455  A
O128       Ni135   1.917       .  S
O129       C1243   1.281   1_455  A
O129       Ni135   1.910       .  S
O130       C1244   1.281   1_455  A
O130       Ni135   1.913       .  S
O131        C140   1.280       .  A
O131       Ni136   1.916       .  S
O132        C139   1.279       .  A
O132       Ni136   1.913       .  S
O133        C138   1.283       .  A
O133       Ni136   1.920       .  S
O134        C137   1.283       .  A
O134       Ni136   1.921       .  S
Ni135     Ni1240   2.382   1_455  S
Ni136     Ni1239   2.382       .  S
C137       O1231   1.280       .  A
C137        C221   1.488       .  S
C138       O1232   1.280       .  A
C138        C202   1.491       .  S
C139       O1233   1.281       .  A
C139        C298   1.487       .  S
C140       O1234   1.281       .  A
C140        C426   1.482       .  S
O141        C151   1.285       .  A
O141       Ni701   1.932   1_545  S
O142        C152   1.285       .  A
O142       Ni149   1.930       .  S
O143        C705   1.276       .  A
O143       Ni149   1.904       .  S
O144        C706   1.279       .  A
O144       Ni149   1.904       .  S
O145        C154   1.282       .  A
O145       Ni150   1.927       .  S
O146        C153   1.284       .  A
O146       Ni150   1.927       .  S
O147        C152   1.277       .  A
O147       Ni702   1.908       .  S
O148        C151   1.278       .  A
O148       Ni150   1.911       .  S
Ni149       O693   1.932       .  S
Ni149      Ni702   2.381       .  S
Ni150       O699   1.908   1_545  S
Ni150      Ni701   2.381   1_545  S
C151        C186   1.489       .  S
C152        C170   1.491       .  S
C153        O695   1.276   1_545  A
C153        C253   1.483       .  S
C154        O696   1.279   1_545  A
C154        C394   1.495       .  S
O155        C165   1.280       .  A
O155       Ni163   1.916       .  S
O156        C166   1.279       .  A
O156       Ni163   1.916       .  S
O157        C167   1.281       .  A
O157       Ni163   1.910       .  S
O158        C168   1.279       .  A
O158       Ni163   1.912       .  S
O159        C168   1.282       .  A
O159       Ni164   1.924       .  S
O160        C167   1.281       .  A
O160       Ni164   1.924       .  S
O161        C166   1.284       .  A
O161       Ni164   1.924       .  S
O162        C165   1.282       .  A
O162       Ni164   1.924       .  S
Ni163      Ni164   2.383       .  S
C165        C189   1.485       .  S
C166        C173   1.494       .  S
C167        C362   1.495       .  S
C168        C237   1.478       .  S
C169        C170   1.404       .  A
C169        C174   1.410       .  A
C169        H176   1.082       .  S
C170        C171   1.424       .  A
C171        C172   1.408       .  A
C171        C178   1.522       .  S
C172        C173   1.405       .  A
C172        H177   1.082       .  S
C173        C174   1.424       .  A
C174        C175   1.521       .  S
C175        F179   1.385       .  S
C175        F180   1.383       .  S
C175        F181   1.384       .  S
C178        F182   1.384       .  S
C178        F183   1.383       .  S
C178        F184   1.385       .  S
C185        C186   1.404       .  A
C185        C190   1.409       .  A
C185        H192   1.085       .  S
C186        C187   1.423       .  A
C187        C188   1.409       .  A
C187        C194   1.520       .  S
C188        C189   1.403       .  A
C188        H193   1.084       .  S
C189        C190   1.419       .  A
C190        C191   1.520       .  S
C191        F195   1.384       .  S
C191        F196   1.384       .  S
C191        F197   1.382       .  S
C194        F198   1.383       .  S
C194        F199   1.383       .  S
C194        F200   1.385       .  S
C201        C202   1.405       .  A
C201        C206   1.408       .  A
C201        H208   1.082       .  S
C202       C1307   1.422       .  A
C203        C204   1.409       .  A
C203       C1306   1.422   1_455  A
C203        C210   1.521       .  S
C204       C1309   1.405   1_455  A
C204        H209   1.082       .  S
C205        C206   1.423       .  A
C205       C1308   1.405       .  A
C206        C207   1.522       .  S
C207        F211   1.385       .  S
C207        F212   1.384       .  S
C207        F213   1.383       .  S
C210        F214   1.383       .  S
C210        F215   1.384       .  S
C210        F216   1.385       .  S
C217        C222   1.408       .  A
C217       C1322   1.405   1_455  A
C217        H224   1.083       .  S
C218        C219   1.423       .  A
C218       C1321   1.405       .  A
C219        C220   1.408       .  A
C219        C226   1.521       .  S
C220        C221   1.404       .  A
C220        H225   1.083       .  S
C221       C1326   1.421       .  A
C222       C1325   1.421   1_455  A
C222        C223   1.521       .  S
C223        F227   1.385       .  S
C223        F228   1.384       .  S
C223        F229   1.382       .  S
C226        F230   1.383       .  S
C226        F231   1.382       .  S
C226        F232   1.385       .  S
C233        C234   1.401       .  A
C233        C238   1.407       .  A
C233        H240   1.085       .  S
C234        C235   1.413       .  A
C235        C236   1.406       .  A
C235        C242   1.519       .  S
C236        C237   1.404       .  A
C236        H241   1.085       .  S
C237        C238   1.417       .  A
C238        C239   1.517       .  S
C239        F243   1.385       .  S
C239        F244   1.382       .  S
C239        F245   1.383       .  S
C242        F246   1.382       .  S
C242        F247   1.383       .  S
C242        F248   1.384       .  S
C249        C254   1.404       .  A
C249        C802   1.405       .  A
C249        H256   1.082       .  S
C250        C251   1.424       .  A
C250        C801   1.405   1_545  A
C251        C252   1.409       .  A
C251        C258   1.520       .  S
C252        C253   1.402       .  A
C252        H257   1.081       .  S
C253        C806   1.421   1_545  A
C254        C805   1.421       .  A
C254        C255   1.523       .  S
C255        F259   1.385       .  S
C255        F260   1.383       .  S
C255        F261   1.382       .  S
C258        F262   1.384       .  S
C258        F263   1.383       .  S
C258        F264   1.385       .  S
C265        C266   1.405   1_556  A
C265        C270   1.407       .  A
C265        H272   1.083       .  S
C266        C267   1.423       .  A
C267        C268   1.411       .  A
C267        C274   1.521       .  S
C268        C269   1.407       .  A
C268        H273   1.082       .  S
C269        C270   1.423   1_554  A
C270        C271   1.522       .  S
C271        F275   1.385       .  S
C271        F276   1.383       .  S
C271        F277   1.384       .  S
C274        F278   1.384       .  S
C274        F279   1.383       .  S
C274        F280   1.385       .  S
C281        C282   1.405   1_554  A
C281        C286   1.409       .  A
C281        H288   1.084       .  S
C282        C283   1.421       .  A
C283        C284   1.407       .  A
C283        C290   1.521       .  S
C284        C285   1.405       .  A
C284        H289   1.084       .  S
C285        C286   1.422   1_556  A
C286        C287   1.521       .  S
C287        F291   1.385       .  S
C287        F292   1.383       .  S
C287        F293   1.383       .  S
C290        F294   1.384       .  S
C290        F295   1.383       .  S
C290        F296   1.385       .  S
C297        C302   1.403       .  A
C297       C1402   1.407   1_455  A
C297        H304   1.082       .  S
C298        C299   1.424       .  A
C298       C1401   1.407       .  A
C299        C300   1.406       .  A
C299        C306   1.522       .  S
C300        C301   1.402       .  A
C300        H305   1.083       .  S
C301       C1188   1.476       .  S
C301       C1406   1.416       .  A
C302       C1405   1.416   1_455  A
C302        C303   1.521       .  S
C303        F307   1.385       .  S
C303        F308   1.384       .  S
C303        F309   1.382       .  S
C306        F310   1.384       .  S
C306        F311   1.383       .  S
C306        F312   1.385       .  S
C313        C314   1.405   1_554  A
C313        C318   1.409       .  A
C313        H320   1.082       .  S
C314        C867   1.421   1_545  A
C315        C316   1.407       .  A
C315        C866   1.421       .  A
C315        C322   1.520       .  S
C316        C317   1.402   1_556  A
C316        H321   1.082       .  S
C317        C870   1.418       .  A
C318        C869   1.418       .  A
C318        C319   1.519       .  S
C319        F323   1.385       .  S
C319        F324   1.382       .  S
C319        F325   1.383       .  S
C322        F326   1.384       .  S
C322        F327   1.382       .  S
C322        F328   1.385       .  S
C329        C330   1.406       .  A
C329        C334   1.411       .  A
C329        H336   1.083       .  S
C330        C883   1.423   1_556  A
C331        C332   1.408       .  A
C331        C882   1.423   1_554  A
C331        C338   1.522       .  S
C332        C333   1.407   1_544  A
C332        H337   1.083       .  S
C333        C886   1.425       .  A
C334        C885   1.425       .  A
C334        C335   1.522       .  S
C335        F339   1.385       .  S
C335        F340   1.383       .  S
C335        F341   1.383       .  S
C338        F342   1.384       .  S
C338        F343   1.383       .  S
C338        F344   1.385       .  S
C345        C350   1.408       .  A
C345       C1450   1.410       .  A
C345        H352   1.084       .  S
C346       C1449   1.410       .  A
C346        C899   1.427       .  A
C347        C348   1.408       .  A
C347        C898   1.427       .  A
C347        C354   1.521       .  S
C348        C901   1.398   1_545  A
C348        H353   1.085       .  S
C349        C677   1.472       .  S
C349        C900   1.398       .  A
C349       C1454   1.410       .  A
C350       C1453   1.410       .  A
C350        C351   1.517       .  S
C351        F355   1.384       .  S
C351        F356   1.382   1_655  S
C351        F357   1.383       .  S
C354        F358   1.383       .  S
C354        F359   1.384       .  S
C354        F360   1.385       .  S
C361        C362   1.409       .  A
C361        C366   1.405       .  A
C361        H368   1.083       .  S
C362        C363   1.424       .  A
C363        C364   1.410       .  A
C363        C370   1.521       .  S
C364        C365   1.405       .  A
C364        H369   1.084       .  S
C365        C366   1.415       .  A
C366        C367   1.520       .  S
C367        F371   1.385       .  S
C367        F372   1.384       .  S
C367        F373   1.382       .  S
C370        F374   1.383       .  S
C370        F375   1.383       .  S
C370        F376   1.385       .  S
C377        C378   1.407       .  A
C377        C382   1.406       .  A
C377        H384   1.082       .  S
C378        C379   1.422       .  A
C379        C380   1.409       .  A
C379        C386   1.521       .  S
C380        C381   1.406       .  A
C380        H385   1.082       .  S
C381        C382   1.419       .  A
C382        C383   1.522       .  S
C383        F387   1.385       .  S
C383        F388   1.384       .  S
C383        F389   1.382       .  S
C386        F390   1.382       .  S
C386        F391   1.383       .  S
C386        F392   1.385       .  S
C393        C394   1.410   1_565  A
C393        C398   1.405       .  A
C393        H400   1.084       .  S
C394        C947   1.424       .  A
C395        C396   1.409       .  A
C395        C946   1.424       .  A
C395        C402   1.520       .  S
C396        C949   1.404       .  A
C396        H401   1.085       .  S
C397        C398   1.416       .  A
C397        C948   1.404       .  A
C398        C399   1.521       .  S
C399        F405   1.382   1_565  S
C399        F955   1.385       .  S
C399        F956   1.384       .  S
C402        F406   1.384       .  S
C402        F959   1.383       .  S
C402        F960   1.384       .  S
F403        C951   1.385       .  S
F404        C951   1.384       .  S
F407        C954   1.383       .  S
F408        C954   1.384       .  S
C409        C414   1.409       .  A
C409        C962   1.399       .  A
C409        H416   1.081       .  S
C410        C411   1.413   1_565  A
C410        C961   1.399       .  A
C411        C412   1.406       .  A
C411        C418   1.522       .  S
C412        C413   1.412   1_545  A
C412        H417   1.080       .  S
C413        C966   1.429       .  A
C414        C965   1.429       .  A
C414        C415   1.522       .  S
C415        F419   1.385       .  S
C415        F420   1.381       .  S
C415        F421   1.383       .  S
C418        F422   1.383       .  S
C418        F423   1.382       .  S
C418        F424   1.385       .  S
C425        C430   1.406       .  A
C425       C1530   1.403   1_455  A
C425        H432   1.082       .  S
C426        C427   1.418       .  A
C426       C1529   1.403       .  A
C427        C428   1.406       .  A
C427        C434   1.521       .  S
C428        C429   1.408       .  A
C428        H433   1.081       .  S
C429       C1131   1.489       .  S
C429       C1534   1.422       .  A
C430       C1533   1.422   1_455  A
C430        C431   1.521       .  S
C431        F435   1.385       .  S
C431        F436   1.384       .  S
C431        F437   1.382       .  S
C434        F438   1.384       .  S
C434        F439   1.382       .  S
C434        F440   1.385       .  S
C441        C442   1.406       .  A
C441        C446   1.411       .  A
C441        H448   1.079       .  S
C442        C443   1.421       .  A
C443        C444   1.411       .  A
C443        C450   1.520       .  S
C444        C445   1.406       .  A
C444        H449   1.080       .  S
C445        C446   1.422       .  A
C446        C447   1.520       .  S
C447        F451   1.385       .  S
C447        F452   1.383       .  S
C447        F453   1.383       .  S
C450        F454   1.382       .  S
C450        F455   1.384       .  S
C450        F456   1.385       .  S
C457        C458   1.405       .  A
C457        C462   1.410       .  A
C457        H464   1.082       .  S
C458        C459   1.421       .  A
C459        C460   1.411       .  A
C459        C466   1.520       .  S
C460        C461   1.406       .  A
C460        H465   1.081       .  S
C461        C462   1.423       .  A
C462        C463   1.519       .  S
C463        F467   1.385       .  S
C463        F468   1.382       .  S
C463        F469   1.382       .  S
C466        F470   1.384       .  S
C466        F471   1.382       .  S
C466        F472   1.385       .  S
C473        C474   1.400   1_455  A
C473        C478   1.408       .  A
C473        H480   1.086       .  S
C474       C1579   1.413       .  A
C475        C476   1.405       .  A
C475       C1578   1.413       .  A
C475        C482   1.519       .  S
C476       C1581   1.411       .  A
C476        H481   1.084       .  S
C477        C478   1.428   1_655  A
C477       C1580   1.411       .  A
C478        C479   1.523       .  S
C479        F483   1.385       .  S
C479        F484   1.383   1_455  S
C479        F485   1.384       .  S
C482        F486   1.383       .  S
C482        F487   1.382       .  S
C482        F488   1.385       .  S
C489        C494   1.404       .  A
C489       C1594   1.407   1_455  A
C489        H496   1.082       .  S
C490       C1593   1.407       .  A
C490       C1043   1.426       .  A
C491        C492   1.412       .  A
C491       C1042   1.426       .  A
C491        C498   1.520       .  S
C492        C493   1.404   1_545  A
C492        H497   1.081       .  S
C493       C1230   1.486       .  S
C493       C2150   1.418       .  A
C494       C2149   1.418   1_455  A
C494        C495   1.521       .  S
C495        F499   1.385       .  S
C495        F500   1.384       .  S
C495       F1053   1.382       .  S
C498        F503   1.383       .  S
C498        F504   1.385       .  S
C498       F1054   1.384   1_545  S
F501       C1047   1.382   1_545  S
F502       C1050   1.384       .  S
C505        C506   1.404       .  A
C505        C510   1.410       .  A
C505        H512   1.086       .  S
C506        C507   1.417       .  A
C507        C508   1.413       .  A
C507        C514   1.518       .  S
C508        C509   1.405       .  A
C508        H513   1.085       .  S
C509        C510   1.417       .  A
C510        C511   1.517       .  S
C511        F515   1.385       .  S
C511        F516   1.382       .  S
C511        F517   1.383       .  S
C514        F518   1.384       .  S
C514        F519   1.382       .  S
C514        F520   1.385       .  S
C521        C522   1.406       .  A
C521        C526   1.412       .  A
C521        H528   1.084       .  S
C522        C523   1.423       .  A
C523        C524   1.414       .  A
C523        C530   1.520       .  S
C524        C525   1.406       .  A
C524        H529   1.084       .  S
C525        C526   1.424       .  A
C526        C527   1.521       .  S
C527        F531   1.385       .  S
C527        F532   1.384       .  S
C527        F533   1.383       .  S
C530        F534   1.383       .  S
C530        F535   1.384       .  S
C530        F536   1.384       .  S
C537        C542   1.409       .  A
C537       C2194   1.405       .  A
C537        H544   1.083       .  S
C538        C539   1.418       .  A
C538       C2193   1.405       .  A
C539        C540   1.407       .  A
C539        C546   1.521       .  S
C540        C541   1.408       .  A
C540        H545   1.083       .  S
C541       C1118   1.493       .  S
C541       C2198   1.423       .  A
C542       C2197   1.423       .  A
C542        C543   1.521       .  S
C543        F547   1.385       .  S
C543        F548   1.384       .  S
C543        F549   1.383   1_455  S
C546        F550   1.384       .  S
C546        F551   1.382       .  S
C546        F552   1.385       .  S
O553        C563   1.281       .  A
O553      Ni1665   1.923       .  S
O554        C564   1.281       .  A
O555       C1669   1.282   1_465  A
O555       Ni561   1.912       .  S
O556        C566   1.282   1_565  A
O556       Ni561   1.915       .  S
O557       C1118   1.281       .  A
O557       Ni562   1.922       .  S
O558       Ni562   1.926       .  S
O559        C564   1.285       .  A
O559      Ni1666   1.931   1_455  S
O560        C563   1.283       .  A
Ni561      O1657   1.923   1_455  S
Ni561     Ni1114   2.381   1_465  S
Ni562      O1663   1.931       .  S
Ni562     Ni1113   2.381       .  S
C563       C1058   1.485       .  S
C564       C1074   1.500       .  S
C565       O1659   1.282   1_545  A
C565       C1042   1.497       .  S
C566       O1109   1.281   1_455  A
C566       C2197   1.493       .  S
O567        C577   1.282       .  A
O567      Ni1679   1.923       .  S
O568        C578   1.283       .  A
O568       Ni575   1.923       .  S
O569        C579   1.280   1_455  A
O569       Ni575   1.917       .  S
O570        C580   1.280   1_455  A
O570       Ni575   1.917       .  S
O571       C1684   1.281       .  A
O571       Ni576   1.914       .  S
O572       C1683   1.281       .  A
O572       Ni576   1.912       .  S
O573        C578   1.281       .  A
O573      Ni1680   1.923   1_455  S
O574        C577   1.282       .  A
O574       Ni576   1.927       .  S
Ni575      O1671   1.923   1_455  S
Ni575     Ni1680   2.383   1_455  S
Ni576      O1677   1.923       .  S
Ni576     Ni1679   2.383       .  S
C577        C994   1.494       .  S
C578       C1010   1.493       .  S
C579       O1676   1.281       .  A
C579       C2085   1.489       .  S
C580       O1675   1.281       .  A
C580       C1026   1.478       .  S
O581        C591   1.284       .  A
O581       Ni589   1.927       .  S
O582        C592   1.284       .  A
O583        C593   1.279       .  A
O583       Ni589   1.912       .  S
O584        C594   1.283       .  A
O584       Ni589   1.916       .  S
O585       Ni590   1.919       .  S
O586       Ni590   1.919       .  S
O587        C592   1.281       .  A
O587       Ni590   1.924       .  S
O588        C591   1.280       .  A
C591        C997   1.493       .  S
C592       C1013   1.497       .  S
C593        C949   1.482       .  S
C594        C965   1.500       .  S
O595        C605   1.281       .  A
O595       Ni603   1.913       .  S
O596        C606   1.280       .  A
O596       Ni603   1.913       .  S
O597        C607   1.286       .  A
O597       Ni603   1.936       .  S
O598        C608   1.284       .  A
O598       Ni603   1.933       .  S
O599        C608   1.281       .  A
O599       Ni604   1.923       .  S
O600        C607   1.281       .  A
O600       Ni604   1.922       .  S
O601        C606   1.282       .  A
O601       Ni604   1.924       .  S
O602        C605   1.281       .  A
O602       Ni604   1.922       .  S
Ni603      Ni604   2.383       .  S
C605        C930   1.492       .  S
C606        C917   1.485       .  S
C607       C1077   1.500       .  S
C608       C1061   1.487       .  S
O609        C619   1.283   1_565  A
O609      Ni1721   1.922   1_455  S
O610        C620   1.282   1_565  A
O610       Ni617   1.919   1_554  S
O611        C621   1.282   1_565  A
O611       Ni617   1.919       .  S
O612        C622   1.280   1_565  A
O612       Ni617   1.917   1_554  S
O613       C1174   1.282       .  A
O613       Ni618   1.919   1_554  S
O614       C1173   1.280       .  A
O614       Ni618   1.918       .  S
O615      Ni1722   1.919       .  S
O616       Ni618   1.919       .  S
Ni617      O1713   1.922       .  S
Ni617     Ni1170   2.382   1_565  S
Ni618      O1719   1.919   1_455  S
Ni618     Ni1169   2.382   1_455  S
C619        C882   1.496       .  S
C620        C869   1.482       .  S
C621       O1166   1.280       .  A
C621        C898   1.493       .  S
C622       O1165   1.282       .  A
C622       C1090   1.487       .  S
O623        C633   1.282       .  A
O623       Ni631   1.920       .  S
O624        C634   1.283       .  A
O624      Ni1735   1.920       .  S
O625        C635   1.278   1_455  A
O625       Ni631   1.914       .  S
O626        C636   1.279   1_455  A
O626       Ni631   1.911   1_556  S
O627       C1740   1.281       .  A
O627       Ni632   1.913   1_556  S
O628       C1739   1.283       .  A
O628       Ni632   1.916       .  S
O629        C634   1.279       .  A
O629       Ni632   1.916       .  S
O630        C633   1.280       .  A
O630      Ni1736   1.916   1_455  S
Ni631      O1728   1.920   1_455  S
Ni631     Ni1736   2.381   1_455  S
Ni632      O1734   1.916       .  S
Ni632     Ni1735   2.381       .  S
C633        C834   1.489   1_554  S
C634        C818   1.494       .  S
C635       O1732   1.283       .  A
C635       C1029   1.497       .  S
C636       O1731   1.281       .  A
C636       C1957   1.476       .  S
O637        C647   1.284       .  A
O637       Ni645   1.920   1_556  S
O638        C648   1.283   1_554  A
O638       Ni645   1.923       .  S
O639        C649   1.279       .  A
O639       Ni645   1.914   1_556  S
O640        C650   1.279       .  A
O640       Ni645   1.914       .  S
O641       Ni646   1.917   1_554  S
O642       Ni646   1.916       .  S
O643       Ni646   1.917       .  S
O644       Ni646   1.920       .  S
C647        C885   1.499       .  S
C648        C866   1.485       .  S
C649        C802   1.490       .  S
C650        C962   1.476       .  S
O651        C661   1.279       .  A
O651       Ni659   1.915   1_556  S
O652        C662   1.280       .  A
O652       Ni659   1.915       .  S
O653        C663   1.280       .  A
O653       Ni659   1.916   1_556  S
O654        C664   1.282       .  A
O654       Ni659   1.917       .  S
O655        C664   1.280       .  A
O655       Ni660   1.917       .  S
O656        C663   1.280       .  A
O656       Ni660   1.917   1_556  S
O657        C662   1.283       .  A
O657       Ni660   1.922       .  S
O658        C661   1.283       .  A
O658       Ni660   1.921   1_556  S
Ni659      Ni660   2.384       .  S
C661        C837   1.490       .  S
C662        C821   1.494       .  S
C663        C786   1.471       .  S
C664        C933   1.488       .  S
O665       C1779   1.284   1_455  A
O666       C1780   1.285   1_455  A
O666       Ni673   1.926       .  S
O667       C1781   1.278   1_455  A
O667       Ni673   1.909       .  S
O668        C678   1.278   1_455  A
O668       Ni673   1.910       .  S
O669       C1230   1.284       .  A
O669       Ni674   1.930       .  S
O670       Ni674   1.927       .  S
O671        C676   1.278       .  A
O672        C675   1.278       .  A
O672       Ni674   1.912       .  S
Ni673     Ni1226   2.385   1_455  S
Ni674     Ni1225   2.385   1_565  S
C675       O1769   1.284       .  A
C675        C757   1.491       .  S
C676       O1770   1.285       .  A
C676        C770   1.490       .  S
C677       O1771   1.278       .  A
C678       O1221   1.284       .  A
C678       C2149   1.486       .  S
O679       C1793   1.280   1_455  A
O679       Ni687   1.916       .  S
O680       C1794   1.280   1_455  A
O680       Ni687   1.917       .  S
O681       C1795   1.281   1_455  A
O681       Ni687   1.910       .  S
O682       C1796   1.281   1_455  A
O682       Ni687   1.913       .  S
O683        C692   1.280       .  A
O683       Ni688   1.916       .  S
O684        C691   1.279       .  A
O684       Ni688   1.913       .  S
O685        C690   1.283       .  A
O685       Ni688   1.920       .  S
O686        C689   1.283       .  A
O686       Ni688   1.921       .  S
Ni687     Ni1792   2.382   1_455  S
Ni688     Ni1791   2.382       .  S
C689       O1783   1.280       .  A
C689        C773   1.488       .  S
C690       O1784   1.280       .  A
C690        C754   1.491       .  S
C691       O1785   1.281       .  A
C691        C850   1.487       .  S
C692       O1786   1.281       .  A
C692        C978   1.482       .  S
O693        C703   1.285       .  A
O694        C704   1.285       .  A
O694       Ni701   1.930       .  S
O695       Ni701   1.904       .  S
O696       Ni701   1.904       .  S
O697        C706   1.282       .  A
O697       Ni702   1.927       .  S
O698        C705   1.284       .  A
O698       Ni702   1.927       .  S
O699        C704   1.277       .  A
O700        C703   1.278       .  A
O700       Ni702   1.911       .  S
C703        C738   1.489       .  S
C704        C722   1.491       .  S
C705        C805   1.483       .  S
C706        C946   1.495       .  S
O707        C717   1.280       .  A
O707       Ni715   1.916       .  S
O708        C718   1.279       .  A
O708       Ni715   1.916       .  S
O709        C719   1.281       .  A
O709       Ni715   1.910       .  S
O710        C720   1.279       .  A
O710       Ni715   1.912       .  S
O711        C720   1.282       .  A
O711       Ni716   1.924       .  S
O712        C719   1.281       .  A
O712       Ni716   1.924       .  S
O713        C718   1.284       .  A
O713       Ni716   1.924       .  S
O714        C717   1.282       .  A
O714       Ni716   1.924       .  S
Ni715      Ni716   2.383       .  S
C717        C741   1.485       .  S
C718        C725   1.494       .  S
C719        C914   1.495       .  S
C720        C789   1.478       .  S
C721        C722   1.404       .  A
C721        C726   1.410       .  A
C721        H728   1.082       .  S
C722        C723   1.424       .  A
C723        C724   1.408       .  A
C723        C730   1.522       .  S
C724        C725   1.405       .  A
C724        H729   1.082       .  S
C725        C726   1.424       .  A
C726        C727   1.521       .  S
C727        F731   1.385       .  S
C727        F732   1.383       .  S
C727        F733   1.384       .  S
C730        F734   1.384       .  S
C730        F735   1.383       .  S
C730        F736   1.385       .  S
C737        C738   1.404       .  A
C737        C742   1.409       .  A
C737        H744   1.085       .  S
C738        C739   1.423       .  A
C739        C740   1.409       .  A
C739        C746   1.520       .  S
C740        C741   1.403       .  A
C740        H745   1.084       .  S
C741        C742   1.419       .  A
C742        C743   1.520       .  S
C743        F747   1.384       .  S
C743        F748   1.384       .  S
C743        F749   1.382       .  S
C746        F750   1.383       .  S
C746        F751   1.383       .  S
C746        F752   1.385       .  S
C753        C754   1.405       .  A
C753        C758   1.408       .  A
C753        H760   1.082       .  S
C754       C1859   1.422       .  A
C755       C1858   1.422   1_455  A
C755        C756   1.409       .  A
C755        C762   1.521       .  S
C756       C1861   1.405   1_455  A
C756        H761   1.082       .  S
C757       C1860   1.405       .  A
C757        C758   1.423       .  A
C758        C759   1.522       .  S
C759        F763   1.385       .  S
C759        F764   1.384       .  S
C759        F765   1.383       .  S
C762        F766   1.383       .  S
C762        F767   1.384       .  S
C762        F768   1.385       .  S
C769       C1874   1.405   1_455  A
C769        C774   1.408       .  A
C769        H776   1.083       .  S
C770       C1873   1.405       .  A
C770        C771   1.423       .  A
C771        C772   1.408       .  A
C771        C778   1.521       .  S
C772        C773   1.404       .  A
C772        H777   1.083       .  S
C773       C1878   1.421       .  A
C774       C1877   1.421   1_455  A
C774        C775   1.521       .  S
C775        F779   1.385       .  S
C775        F780   1.384       .  S
C775        F781   1.382       .  S
C778        F782   1.383       .  S
C778        F783   1.382       .  S
C778        F784   1.385       .  S
C785        C786   1.401       .  A
C785        C790   1.407       .  A
C785        H792   1.085       .  S
C786        C787   1.413       .  A
C787        C788   1.406       .  A
C787        C794   1.519       .  S
C788        C789   1.404       .  A
C788        H793   1.085       .  S
C789        C790   1.417       .  A
C790        C791   1.517       .  S
C791        F795   1.385       .  S
C791        F796   1.382       .  S
C791        F797   1.383       .  S
C794        F798   1.382       .  S
C794        F799   1.383       .  S
C794        F800   1.384       .  S
C801        C806   1.404       .  A
C801        H808   1.082       .  S
C802        C803   1.424       .  A
C803        C804   1.409       .  A
C803        C810   1.520       .  S
C804        C805   1.402       .  A
C804        H809   1.081       .  S
C806        C807   1.523       .  S
C807        F811   1.385       .  S
C807        F812   1.383       .  S
C807        F813   1.382       .  S
C810        F814   1.384       .  S
C810        F815   1.383       .  S
C810        F816   1.385       .  S
C817        C818   1.405   1_556  A
C817        C822   1.407       .  A
C817        H824   1.083       .  S
C818        C819   1.423       .  A
C819        C820   1.411       .  A
C819        C826   1.521       .  S
C820        C821   1.407       .  A
C820        H825   1.082       .  S
C821        C822   1.423   1_554  A
C822        C823   1.522       .  S
C823        F827   1.385       .  S
C823        F828   1.383       .  S
C823        F829   1.384       .  S
C826        F830   1.383       .  S
C826        F831   1.384       .  S
C826        F832   1.385       .  S
C833        C834   1.405   1_554  A
C833        C838   1.409       .  A
C833        H840   1.084       .  S
C834        C835   1.421       .  A
C835        C836   1.407       .  A
C835        C842   1.521       .  S
C836        C837   1.405       .  A
C836        H841   1.084       .  S
C837        C838   1.422   1_556  A
C838        C839   1.521       .  S
C839        F843   1.385       .  S
C839        F844   1.383       .  S
C839        F845   1.383       .  S
C842        F846   1.384       .  S
C842        F847   1.383       .  S
C842        F848   1.385       .  S
C849       C1954   1.407   1_455  A
C849        C854   1.403       .  A
C849        H856   1.082       .  S
C850       C1953   1.407       .  A
C850        C851   1.424       .  A
C851        C852   1.406       .  A
C851        C858   1.522       .  S
C852        C853   1.402       .  A
C852        H857   1.083       .  S
C853       C1740   1.476       .  S
C853       C1958   1.416       .  A
C854       C1957   1.416   1_455  A
C854        C855   1.521       .  S
C855        F859   1.385       .  S
C855        F860   1.384       .  S
C855        F861   1.382       .  S
C858        F862   1.384       .  S
C858        F863   1.383       .  S
C858        F864   1.385       .  S
C865        C866   1.405   1_554  A
C865        C870   1.409       .  A
C865        H872   1.082       .  S
C867        C868   1.407       .  A
C867        C874   1.520       .  S
C868        C869   1.402   1_566  A
C868        H873   1.082       .  S
C870        C871   1.519       .  S
C871        F875   1.385       .  S
C871        F876   1.382       .  S
C871        F877   1.383       .  S
C874        F878   1.384       .  S
C874        F879   1.382       .  S
C874        F880   1.385       .  S
C881        C882   1.406   1_565  A
C881        C886   1.411       .  A
C881        H888   1.083       .  S
C883        C884   1.408       .  A
C883        C890   1.522       .  S
C884        C885   1.407   1_554  A
C884        H889   1.083       .  S
C886        C887   1.522       .  S
C887        F891   1.385       .  S
C887        F892   1.383       .  S
C887        F893   1.383       .  S
C890        F894   1.384       .  S
C890        F895   1.383       .  S
C890        F896   1.385       .  S
C897       C2002   1.410   1_565  A
C897        C902   1.408       .  A
C897        H904   1.084       .  S
C898       C2001   1.410   1_545  A
C899        C900   1.408       .  A
C899        C906   1.521       .  S
C900        H905   1.085       .  S
C901       C2006   1.410       .  A
C902       C2005   1.410       .  A
C902        C903   1.517       .  S
C903        F907   1.384       .  S
C903        F908   1.382   1_655  S
C903        F909   1.383       .  S
C906        F910   1.383       .  S
C906        F911   1.384       .  S
C906        F912   1.385       .  S
C913        C914   1.409       .  A
C913        C918   1.405       .  A
C913        H920   1.083       .  S
C914        C915   1.424       .  A
C915        C916   1.410       .  A
C915        C922   1.521       .  S
C916        C917   1.405       .  A
C916        H921   1.084       .  S
C917        C918   1.415       .  A
C918        C919   1.520       .  S
C919        F923   1.385       .  S
C919        F924   1.384       .  S
C919        F925   1.382       .  S
C922        F926   1.383       .  S
C922        F927   1.383       .  S
C922        F928   1.385       .  S
C929        C930   1.407       .  A
C929        C934   1.406       .  A
C929        H936   1.082       .  S
C930        C931   1.422       .  A
C931        C932   1.409       .  A
C931        C938   1.521       .  S
C932        C933   1.406       .  A
C932        H937   1.082       .  S
C933        C934   1.419       .  A
C934        C935   1.522       .  S
C935        F939   1.385       .  S
C935        F940   1.384       .  S
C935        F941   1.382       .  S
C938        F942   1.382       .  S
C938        F943   1.383       .  S
C938        F944   1.385       .  S
C945        C946   1.410       .  A
C945        C950   1.405       .  A
C945        H952   1.084       .  S
C947        C948   1.409   1_545  A
C947        C954   1.520       .  S
C948        H953   1.085   1_565  S
C949        C950   1.416       .  A
C950        C951   1.521       .  S
C951        F957   1.382       .  S
C954        F958   1.384   1_545  S
C961        C966   1.409       .  A
C961        H968   1.081       .  S
C962        C963   1.413       .  A
C963        C964   1.406       .  A
C963        C970   1.522       .  S
C964        C965   1.412       .  A
C964        H969   1.080       .  S
C966        C967   1.522       .  S
C967        F971   1.385       .  S
C967        F972   1.381       .  S
C967        F973   1.383       .  S
C970        F974   1.383       .  S
C970        F975   1.382       .  S
C970        F976   1.385       .  S
C977       C2082   1.403   1_455  A
C977        C982   1.406       .  A
C977        H984   1.082       .  S
C978       C2081   1.403       .  A
C978        C979   1.418       .  A
C979        C980   1.406       .  A
C979        C986   1.521       .  S
C980        C981   1.408       .  A
C980        H985   1.081       .  S
C981       C1683   1.489       .  S
C981       C2086   1.422       .  A
C982       C2085   1.422   1_455  A
C982        C983   1.521       .  S
C983        F987   1.385       .  S
C983        F988   1.384       .  S
C983        F989   1.382       .  S
C986        F990   1.384       .  S
C986        F991   1.382       .  S
C986        F992   1.385       .  S
C993        C994   1.406       .  A
C993        C998   1.411       .  A
C993       H1000   1.079       .  S
C994        C995   1.421       .  A
C995        C996   1.411       .  A
C995       C1002   1.520       .  S
C996        C997   1.406       .  A
C996       H1001   1.080       .  S
C997        C998   1.422       .  A
C998        C999   1.520       .  S
C999       F1003   1.385       .  S
C999       F1004   1.383       .  S
C999       F1005   1.383       .  S
C1002      F1006   1.382       .  S
C1002      F1007   1.384       .  S
C1002      F1008   1.385       .  S
C1009      C1010   1.405       .  A
C1009      C1014   1.410       .  A
C1009      H1016   1.082       .  S
C1010      C1011   1.421       .  A
C1011      C1012   1.411       .  A
C1011      C1018   1.520       .  S
C1012      C1013   1.406       .  A
C1012      H1017   1.081       .  S
C1013      C1014   1.423       .  A
C1014      C1015   1.519       .  S
C1015      F1019   1.385       .  S
C1015      F1020   1.382       .  S
C1015      F1021   1.382       .  S
C1018      F1022   1.384       .  S
C1018      F1023   1.382       .  S
C1018      F1024   1.385       .  S
C1025      C1026   1.400   1_455  A
C1025      C1030   1.408       .  A
C1025      H1032   1.086       .  S
C1026      C2131   1.413       .  A
C1027      C2130   1.413       .  A
C1027      C1028   1.405       .  A
C1027      C1034   1.519       .  S
C1028      C2133   1.411       .  A
C1028      H1033   1.084       .  S
C1029      C2132   1.411       .  A
C1029      C1030   1.428   1_655  A
C1030      C1031   1.523       .  S
C1031      F1035   1.385       .  S
C1031      F1036   1.383   1_455  S
C1031      F1037   1.384       .  S
C1034      F1038   1.383       .  S
C1034      F1039   1.382       .  S
C1034      F1040   1.385       .  S
C1041      C2146   1.407   1_465  A
C1041      C1046   1.404       .  A
C1041      H1048   1.082       .  S
C1042      C2145   1.407   1_545  A
C1043      C1044   1.412       .  A
C1043      C1050   1.520       .  S
C1044      C1045   1.404       .  A
C1044      H1049   1.081       .  S
C1045      C1782   1.486       .  S
C1045      C1598   1.418       .  A
C1046      C1597   1.418   1_455  A
C1046      C1047   1.521       .  S
C1047      F1051   1.385       .  S
C1047      F1052   1.384       .  S
C1050      F1055   1.383       .  S
C1050      F1056   1.385       .  S
C1057      C1058   1.404       .  A
C1057      C1062   1.410       .  A
C1057      H1064   1.086       .  S
C1058      C1059   1.417       .  A
C1059      C1060   1.413       .  A
C1059      C1066   1.518       .  S
C1060      C1061   1.405       .  A
C1060      H1065   1.085       .  S
C1061      C1062   1.417       .  A
C1062      C1063   1.517       .  S
C1063      F1067   1.385       .  S
C1063      F1068   1.382       .  S
C1063      F1069   1.383       .  S
C1066      F1070   1.384       .  S
C1066      F1071   1.382       .  S
C1066      F1072   1.385       .  S
C1073      C1074   1.406       .  A
C1073      C1078   1.412       .  A
C1073      H1080   1.084       .  S
C1074      C1075   1.423       .  A
C1075      C1076   1.414       .  A
C1075      C1082   1.520       .  S
C1076      C1077   1.406       .  A
C1076      H1081   1.084       .  S
C1077      C1078   1.424       .  A
C1078      C1079   1.521       .  S
C1079      F1083   1.385       .  S
C1079      F1084   1.384       .  S
C1079      F1085   1.383       .  S
C1082      F1086   1.383       .  S
C1082      F1087   1.384       .  S
C1082      F1088   1.384       .  S
C1089      C1642   1.405       .  A
C1089      C1094   1.409       .  A
C1089      H1096   1.083       .  S
C1090      C1641   1.405       .  A
C1090      C1091   1.418   1_545  A
C1091      C1092   1.407       .  A
C1091      C1098   1.521       .  S
C1092      C1093   1.408   1_565  A
C1092      H1097   1.083       .  S
C1093      C1670   1.493       .  S
C1093      C1646   1.423       .  A
C1094      C1645   1.423       .  A
C1094      C1095   1.521       .  S
C1095      F1099   1.385       .  S
C1095      F1100   1.384       .  S
C1095      F1101   1.383   1_455  S
C1098      F1102   1.384       .  S
C1098      F1103   1.382       .  S
C1098      F1104   1.385       .  S
O1105      C1115   1.281       .  A
O1106      C1116   1.281       .  A
O1106     Ni1665   1.925   1_545  S
O1107     Ni1113   1.912       .  S
O1108      C1118   1.282       .  A
O1108     Ni1113   1.915       .  S
O1109     Ni1114   1.922       .  S
O1110      C1669   1.281       .  A
O1110     Ni1114   1.926       .  S
O1111      C1116   1.285       .  A
O1112      C1115   1.283       .  A
O1112     Ni1666   1.929       .  S
Ni1113     O1658   1.925       .  S
Ni1114     O1664   1.929   1_545  S
C1115      C1610   1.485       .  S
C1116      C1626   1.500       .  S
C1117      O1662   1.281       .  A
C1117      C1594   1.497       .  S
O1119      C1129   1.282       .  A
O1120      C1130   1.283       .  A
O1120     Ni1127   1.923       .  S
O1121      C1131   1.280       .  A
O1121     Ni1127   1.917       .  S
O1122      C1132   1.280       .  A
O1122     Ni1127   1.917       .  S
O1123     Ni1128   1.914       .  S
O1124     Ni1128   1.912       .  S
O1125      C1130   1.281       .  A
O1126      C1129   1.282       .  A
O1126     Ni1128   1.927       .  S
C1129      C1546   1.494       .  S
C1130      C1562   1.493       .  S
C1132      C1578   1.478       .  S
O1133      C1143   1.284       .  A
O1133     Ni1141   1.927       .  S
O1134      C1144   1.284       .  A
O1134     Ni1693   1.928       .  S
O1135      C1145   1.279   1_545  A
O1135     Ni1141   1.912       .  S
O1136      C1146   1.283       .  A
O1136     Ni1141   1.916   1_565  S
O1137      C1698   1.279       .  A
O1137     Ni1142   1.919       .  S
O1138      C1697   1.282       .  A
O1138     Ni1142   1.919       .  S
O1139      C1144   1.281       .  A
O1139     Ni1142   1.924       .  S
O1140      C1143   1.280       .  A
O1140     Ni1694   1.920   1_545  S
Ni1141     O1686   1.928   1_545  S
Ni1141    Ni1694   2.380   1_545  S
Ni1142     O1692   1.920       .  S
Ni1142    Ni1693   2.380       .  S
C1143      C1549   1.493       .  S
C1144      C1565   1.497       .  S
C1145      O1690   1.282       .  A
C1145      C1501   1.482       .  S
C1146      O1689   1.279       .  A
C1146      C1517   1.500       .  S
O1147      C1157   1.281       .  A
O1147     Ni1155   1.913       .  S
O1148      C1158   1.280       .  A
O1148     Ni1155   1.913       .  S
O1149      C1159   1.286       .  A
O1149     Ni1155   1.936       .  S
O1150      C1160   1.284       .  A
O1150     Ni1155   1.933       .  S
O1151      C1160   1.281       .  A
O1151     Ni1156   1.923       .  S
O1152      C1159   1.281       .  A
O1152     Ni1156   1.922       .  S
O1153      C1158   1.282       .  A
O1153     Ni1156   1.924       .  S
O1154      C1157   1.281       .  A
O1154     Ni1156   1.922       .  S
Ni1155    Ni1156   2.383       .  S
C1157      C1482   1.492       .  S
C1158      C1469   1.485       .  S
C1159      C1629   1.500       .  S
C1160      C1613   1.487       .  S
O1161      C1171   1.283       .  A
O1162      C1172   1.282       .  A
O1162     Ni1169   1.919   1_554  S
O1163      C1173   1.282   1_655  A
O1163     Ni1169   1.919       .  S
O1164      C1174   1.280   1_655  A
O1164     Ni1169   1.917   1_554  S
O1165     Ni1170   1.919   1_554  S
O1166     Ni1170   1.918       .  S
O1167      C1724   1.280   1_556  A
O1168      C1723   1.280       .  A
O1168     Ni1170   1.919       .  S
C1171      O1720   1.280       .  A
C1171      C1434   1.496       .  S
C1172      O1719   1.280   1_554  A
C1172      C1421   1.482       .  S
C1173      C1450   1.493   1_455  S
C1174      C1642   1.487       .  S
O1175      C1185   1.282       .  A
O1175     Ni1183   1.920       .  S
O1176      C1186   1.283       .  A
O1177      C1187   1.278       .  A
O1177     Ni1183   1.914       .  S
O1178      C1188   1.279       .  A
O1178     Ni1183   1.911   1_556  S
O1179     Ni1184   1.913   1_556  S
O1180     Ni1184   1.916       .  S
O1181      C1186   1.279       .  A
O1181     Ni1184   1.916       .  S
O1182      C1185   1.280       .  A
C1185      C1386   1.489   1_554  S
C1186      C1370   1.494       .  S
C1187      C1581   1.497       .  S
O1189      C1199   1.284   1_545  A
O1189     Ni1197   1.920   1_556  S
O1190      C1200   1.283   1_554  A
O1190     Ni1197   1.923       .  S
O1191      C1201   1.279       .  A
O1191     Ni1197   1.914   1_556  S
O1192      C1202   1.279   1_545  A
O1192     Ni1197   1.914       .  S
O1193      C1754   1.281       .  A
O1193     Ni1198   1.917   1_554  S
O1194      C1753   1.283       .  A
O1194     Ni1198   1.916       .  S
O1195      C1752   1.280       .  A
O1195     Ni1198   1.917       .  S
O1196      C1751   1.280       .  A
O1196     Ni1198   1.920       .  S
Ni1197    Ni1750   2.383   1_544  S
Ni1198    Ni1749   2.383   1_556  S
C1199      O1748   1.280       .  A
C1199      C1437   1.499       .  S
C1200      O1747   1.280   1_545  A
C1200      C1418   1.485       .  S
C1201      O1746   1.283   1_545  A
C1201      C1354   1.490       .  S
C1202      O1745   1.281       .  A
C1202      C1514   1.476       .  S
O1203      C1213   1.279       .  A
O1203     Ni1211   1.915   1_556  S
O1204      C1214   1.280       .  A
O1204     Ni1211   1.915       .  S
O1205      C1215   1.280       .  A
O1205     Ni1211   1.916   1_556  S
O1206      C1216   1.282       .  A
O1206     Ni1211   1.917       .  S
O1207      C1216   1.280       .  A
O1207     Ni1212   1.917       .  S
O1208      C1215   1.280       .  A
O1208     Ni1212   1.917   1_556  S
O1209      C1214   1.283       .  A
O1209     Ni1212   1.922       .  S
O1210      C1213   1.283       .  A
O1210     Ni1212   1.921   1_556  S
Ni1211    Ni1212   2.384       .  S
C1213      C1389   1.490       .  S
C1214      C1373   1.494       .  S
C1215      C1338   1.471       .  S
C1216      C1485   1.488       .  S
O1217     Ni1777   1.927       .  S
O1218     Ni1225   1.926       .  S
O1219     Ni1225   1.909       .  S
O1220      C1230   1.278   1_545  A
O1220     Ni1225   1.910       .  S
O1221     Ni1226   1.930       .  S
O1222      C1781   1.282       .  A
O1222     Ni1226   1.927       .  S
O1223      C1228   1.278       .  A
O1223     Ni1778   1.911   1_545  S
O1224      C1227   1.278       .  A
O1224     Ni1226   1.912       .  S
Ni1225     O1769   1.927   1_545  S
Ni1226     O1775   1.911       .  S
C1227      C1309   1.491       .  S
C1228      C1322   1.490       .  S
C1229      O1774   1.282       .  A
C1229      C2005   1.472       .  S
O1231     Ni1239   1.916       .  S
O1232     Ni1239   1.917       .  S
O1233     Ni1239   1.910       .  S
O1234     Ni1239   1.913       .  S
O1235      C1244   1.280       .  A
O1235     Ni1240   1.916       .  S
O1236      C1243   1.279       .  A
O1236     Ni1240   1.913       .  S
O1237      C1242   1.283       .  A
O1237     Ni1240   1.920       .  S
O1238      C1241   1.283       .  A
O1238     Ni1240   1.921       .  S
C1241      C1325   1.488       .  S
C1242      C1306   1.491       .  S
C1243      C1402   1.487       .  S
C1244      C1530   1.482       .  S
O1245      C1255   1.285       .  A
O1245     Ni1805   1.932   1_545  S
O1246      C1256   1.285       .  A
O1246     Ni1253   1.930       .  S
O1247      C1809   1.276       .  A
O1247     Ni1253   1.904       .  S
O1248      C1810   1.279       .  A
O1248     Ni1253   1.904       .  S
O1249      C1258   1.282       .  A
O1249     Ni1254   1.927       .  S
O1250      C1257   1.284       .  A
O1250     Ni1254   1.927       .  S
O1251      C1256   1.277       .  A
O1251     Ni1806   1.908       .  S
O1252      C1255   1.278       .  A
O1252     Ni1254   1.911       .  S
Ni1253     O1797   1.932       .  S
Ni1253    Ni1806   2.381       .  S
Ni1254     O1803   1.908   1_545  S
Ni1254    Ni1805   2.381   1_545  S
C1255      C1290   1.489       .  S
C1256      C1274   1.491       .  S
C1257      O1799   1.276   1_545  A
C1257      C1357   1.483       .  S
C1258      O1800   1.279   1_545  A
C1258      C1498   1.495       .  S
O1259      C1269   1.280       .  A
O1259     Ni1267   1.916       .  S
O1260      C1270   1.279       .  A
O1260     Ni1267   1.916       .  S
O1261      C1271   1.281       .  A
O1261     Ni1267   1.910       .  S
O1262      C1272   1.279       .  A
O1262     Ni1267   1.912       .  S
O1263      C1272   1.282       .  A
O1263     Ni1268   1.924       .  S
O1264      C1271   1.281       .  A
O1264     Ni1268   1.924       .  S
O1265      C1270   1.284       .  A
O1265     Ni1268   1.924       .  S
O1266      C1269   1.282       .  A
O1266     Ni1268   1.924       .  S
Ni1267    Ni1268   2.383       .  S
C1269      C1293   1.485       .  S
C1270      C1277   1.494       .  S
C1271      C1466   1.495       .  S
C1272      C1341   1.478       .  S
C1273      C1274   1.404       .  A
C1273      C1278   1.410       .  A
C1273      H1280   1.082       .  S
C1274      C1275   1.424       .  A
C1275      C1276   1.408       .  A
C1275      C1282   1.522       .  S
C1276      C1277   1.405       .  A
C1276      H1281   1.082       .  S
C1277      C1278   1.424       .  A
C1278      C1279   1.521       .  S
C1279      F1283   1.385       .  S
C1279      F1284   1.383       .  S
C1279      F1285   1.384       .  S
C1282      F1286   1.384       .  S
C1282      F1287   1.383       .  S
C1282      F1288   1.385       .  S
C1289      C1290   1.404       .  A
C1289      C1294   1.409       .  A
C1289      H1296   1.085       .  S
C1290      C1291   1.423       .  A
C1291      C1292   1.409       .  A
C1291      C1298   1.520       .  S
C1292      C1293   1.403       .  A
C1292      H1297   1.084       .  S
C1293      C1294   1.419       .  A
C1294      C1295   1.520       .  S
C1295      F1299   1.384       .  S
C1295      F1300   1.384       .  S
C1295      F1301   1.382       .  S
C1298      F1302   1.383       .  S
C1298      F1303   1.383       .  S
C1298      F1304   1.385       .  S
C1305      C1306   1.405       .  A
C1305      C1310   1.408       .  A
C1305      H1312   1.082       .  S
C1307      C1308   1.409       .  A
C1307      C1314   1.521       .  S
C1308      H1313   1.082       .  S
C1309      C1310   1.423       .  A
C1310      C1311   1.522       .  S
C1311      F1315   1.385       .  S
C1311      F1316   1.384       .  S
C1311      F1317   1.383       .  S
C1314      F1318   1.383       .  S
C1314      F1319   1.384       .  S
C1314      F1320   1.385       .  S
C1321      C1326   1.408       .  A
C1321      H1328   1.083       .  S
C1322      C1323   1.423       .  A
C1323      C1324   1.408       .  A
C1323      C1330   1.521       .  S
C1324      C1325   1.404       .  A
C1324      H1329   1.083       .  S
C1326      C1327   1.521       .  S
C1327      F1331   1.385       .  S
C1327      F1332   1.384       .  S
C1327      F1333   1.382       .  S
C1330      F1334   1.383       .  S
C1330      F1335   1.382       .  S
C1330      F1336   1.385       .  S
C1337      C1338   1.401       .  A
C1337      C1342   1.407       .  A
C1337      H1344   1.085       .  S
C1338      C1339   1.413       .  A
C1339      C1340   1.406       .  A
C1339      C1346   1.519       .  S
C1340      C1341   1.404       .  A
C1340      H1345   1.085       .  S
C1341      C1342   1.417       .  A
C1342      C1343   1.517       .  S
C1343      F1347   1.385       .  S
C1343      F1348   1.382       .  S
C1343      F1349   1.383       .  S
C1346      F1350   1.382       .  S
C1346      F1351   1.383       .  S
C1346      F1352   1.384       .  S
C1353      C1906   1.405       .  A
C1353      C1358   1.404       .  A
C1353      H1360   1.082       .  S
C1354      C1905   1.405   1_545  A
C1354      C1355   1.424       .  A
C1355      C1356   1.409       .  A
C1355      C1362   1.520       .  S
C1356      C1357   1.402       .  A
C1356      H1361   1.081       .  S
C1357      C1910   1.421   1_545  A
C1358      C1909   1.421       .  A
C1358      C1359   1.523       .  S
C1359      F1363   1.385       .  S
C1359      F1364   1.383       .  S
C1359      F1365   1.382       .  S
C1362      F1366   1.384       .  S
C1362      F1367   1.383       .  S
C1362      F1368   1.385       .  S
C1369      C1370   1.405   1_556  A
C1369      C1374   1.407       .  A
C1369      H1376   1.083       .  S
C1370      C1371   1.423       .  A
C1371      C1372   1.411       .  A
C1371      C1378   1.521       .  S
C1372      C1373   1.407       .  A
C1372      H1377   1.083       .  S
C1373      C1374   1.423   1_554  A
C1374      C1375   1.522       .  S
C1375      F1379   1.385       .  S
C1375      F1380   1.383       .  S
C1375      F1381   1.384       .  S
C1378      F1382   1.384       .  S
C1378      F1383   1.383       .  S
C1378      F1384   1.385       .  S
C1385      C1386   1.405   1_554  A
C1385      C1390   1.409       .  A
C1385      H1392   1.084       .  S
C1386      C1387   1.421       .  A
C1387      C1388   1.407       .  A
C1387      C1394   1.521       .  S
C1388      C1389   1.405       .  A
C1388      H1393   1.084       .  S
C1389      C1390   1.422   1_556  A
C1390      C1391   1.521       .  S
C1391      F1395   1.385       .  S
C1391      F1396   1.383       .  S
C1391      F1397   1.383       .  S
C1394      F1398   1.384       .  S
C1394      F1399   1.383       .  S
C1394      F1400   1.385       .  S
C1401      C1406   1.403       .  A
C1401      H1408   1.082       .  S
C1402      C1403   1.424       .  A
C1403      C1404   1.406       .  A
C1403      C1410   1.522       .  S
C1404      C1405   1.402       .  A
C1404      H1409   1.083       .  S
C1406      C1407   1.521       .  S
C1407      F1411   1.385       .  S
C1407      F1412   1.384       .  S
C1407      F1413   1.382       .  S
C1410      F1414   1.384       .  S
C1410      F1415   1.383       .  S
C1410      F1416   1.385       .  S
C1417      C1418   1.405   1_554  A
C1417      C1422   1.409       .  A
C1417      H1424   1.082       .  S
C1418      C1971   1.421   1_545  A
C1419      C1970   1.421       .  A
C1419      C1420   1.407       .  A
C1419      C1426   1.520       .  S
C1420      C1421   1.402   1_556  A
C1420      H1425   1.082       .  S
C1421      C1974   1.418       .  A
C1422      C1973   1.418       .  A
C1422      C1423   1.519       .  S
C1423      F1427   1.385       .  S
C1423      F1428   1.382       .  S
C1423      F1429   1.383       .  S
C1426      F1430   1.384       .  S
C1426      F1431   1.382       .  S
C1426      F1432   1.385       .  S
C1433      C1434   1.406       .  A
C1433      C1438   1.411       .  A
C1433      H1440   1.083       .  S
C1434      C1987   1.423   1_556  A
C1435      C1986   1.423   1_554  A
C1435      C1436   1.408       .  A
C1435      C1442   1.522       .  S
C1436      C1437   1.407   1_544  A
C1436      H1441   1.083       .  S
C1437      C1990   1.425       .  A
C1438      C1989   1.425       .  A
C1438      C1439   1.522       .  S
C1439      F1443   1.385       .  S
C1439      F1444   1.383       .  S
C1439      F1445   1.383       .  S
C1442      F1446   1.384       .  S
C1442      F1447   1.383       .  S
C1442      F1448   1.385       .  S
C1449      C1454   1.408       .  A
C1449      H1456   1.084       .  S
C1450      C2003   1.427       .  A
C1451      C2002   1.427       .  A
C1451      C1452   1.408       .  A
C1451      C1458   1.521       .  S
C1452      C2005   1.398   1_545  A
C1452      H1457   1.085       .  S
C1453      C1781   1.472       .  S
C1453      C2004   1.398       .  A
C1454      C1455   1.517       .  S
C1455      F1459   1.384       .  S
C1455      F1460   1.382       .  S
C1455      F1461   1.383       .  S
C1458      F1462   1.383   1_655  S
C1458      F1463   1.384       .  S
C1458      F1464   1.385       .  S
C1465      C1466   1.409       .  A
C1465      C1470   1.405       .  A
C1465      H1472   1.083       .  S
C1466      C1467   1.424       .  A
C1467      C1468   1.410       .  A
C1467      C1474   1.521       .  S
C1468      C1469   1.405       .  A
C1468      H1473   1.084       .  S
C1469      C1470   1.415       .  A
C1470      C1471   1.520       .  S
C1471      F1475   1.385       .  S
C1471      F1476   1.384       .  S
C1471      F1477   1.382       .  S
C1474      F1478   1.383       .  S
C1474      F1479   1.383       .  S
C1474      F1480   1.385       .  S
C1481      C1482   1.407       .  A
C1481      C1486   1.406       .  A
C1481      H1488   1.082       .  S
C1482      C1483   1.422       .  A
C1483      C1484   1.409       .  A
C1483      C1490   1.521       .  S
C1484      C1485   1.406       .  A
C1484      H1489   1.082       .  S
C1485      C1486   1.419       .  A
C1486      C1487   1.522       .  S
C1487      F1491   1.385       .  S
C1487      F1492   1.384       .  S
C1487      F1493   1.382       .  S
C1490      F1494   1.382       .  S
C1490      F1495   1.383       .  S
C1490      F1496   1.385       .  S
C1497      C1498   1.410   1_565  A
C1497      C1502   1.405       .  A
C1497      H1504   1.084       .  S
C1498      C2051   1.424       .  A
C1499      C2050   1.424       .  A
C1499      C1500   1.409       .  A
C1499      C1506   1.520       .  S
C1500      C2053   1.404       .  A
C1500      H1505   1.085       .  S
C1501      C2052   1.404       .  A
C1501      C1502   1.416       .  A
C1502      C1503   1.521       .  S
C1503      F2059   1.385       .  S
C1503      F2060   1.384       .  S
C1503      F1509   1.382   1_565  S
C1506      F1510   1.384       .  S
C1506      F2063   1.383       .  S
C1506      F2064   1.384       .  S
F1507      C2055   1.385       .  S
F1508      C2055   1.384       .  S
F1511      C2058   1.383       .  S
F1512      C2058   1.384       .  S
C1513      C2066   1.399       .  A
C1513      C1518   1.409       .  A
C1513      H1520   1.081       .  S
C1514      C2065   1.399       .  A
C1514      C1515   1.413   1_565  A
C1515      C1516   1.406       .  A
C1515      C1522   1.522       .  S
C1516      C1517   1.412   1_545  A
C1516      H1521   1.080       .  S
C1517      C2070   1.429       .  A
C1518      C2069   1.429       .  A
C1518      C1519   1.522       .  S
C1519      F1523   1.385       .  S
C1519      F1524   1.381       .  S
C1519      F1525   1.383       .  S
C1522      F1526   1.383       .  S
C1522      F1527   1.382       .  S
C1522      F1528   1.385       .  S
C1529      C1534   1.406       .  A
C1529      H1536   1.082       .  S
C1530      C1531   1.418       .  A
C1531      C1532   1.406       .  A
C1531      C1538   1.521       .  S
C1532      C1533   1.408       .  A
C1532      H1537   1.081       .  S
C1534      C1535   1.521       .  S
C1535      F1539   1.385       .  S
C1535      F1540   1.384       .  S
C1535      F1541   1.382       .  S
C1538      F1542   1.384       .  S
C1538      F1543   1.382       .  S
C1538      F1544   1.385       .  S
C1545      C1546   1.406       .  A
C1545      C1550   1.411       .  A
C1545      H1552   1.079       .  S
C1546      C1547   1.421       .  A
C1547      C1548   1.411       .  A
C1547      C1554   1.520       .  S
C1548      C1549   1.406       .  A
C1548      H1553   1.080       .  S
C1549      C1550   1.422       .  A
C1550      C1551   1.520       .  S
C1551      F1555   1.385       .  S
C1551      F1556   1.383       .  S
C1551      F1557   1.383       .  S
C1554      F1558   1.382       .  S
C1554      F1559   1.384       .  S
C1554      F1560   1.385       .  S
C1561      C1562   1.405       .  A
C1561      C1566   1.410       .  A
C1561      H1568   1.082       .  S
C1562      C1563   1.421       .  A
C1563      C1564   1.411       .  A
C1563      C1570   1.520       .  S
C1564      C1565   1.406       .  A
C1564      H1569   1.081       .  S
C1565      C1566   1.423       .  A
C1566      C1567   1.519       .  S
C1567      F1571   1.385       .  S
C1567      F1572   1.382       .  S
C1567      F1573   1.382       .  S
C1570      F1574   1.384       .  S
C1570      F1575   1.382       .  S
C1570      F1576   1.385       .  S
C1577      C1578   1.400       .  A
C1577      C1582   1.408       .  A
C1577      H1584   1.086       .  S
C1579      C1580   1.405       .  A
C1579      C1586   1.519       .  S
C1580      H1585   1.084       .  S
C1581      C1582   1.428       .  A
C1582      C1583   1.523       .  S
C1583      F1587   1.385       .  S
C1583      F1588   1.383       .  S
C1583      F1589   1.384       .  S
C1586      F1590   1.383       .  S
C1586      F1591   1.382   1_655  S
C1586      F1592   1.385       .  S
C1593      C1598   1.404       .  A
C1593      H1600   1.082       .  S
C1594      C2147   1.426       .  A
C1595      C2146   1.426       .  A
C1595      C1596   1.412       .  A
C1595      C1602   1.520       .  S
C1596      C1597   1.404   1_545  A
C1596      H1601   1.081       .  S
C1598      C1599   1.521       .  S
C1599      F1603   1.385       .  S
C1599      F1604   1.384       .  S
C1599      F2157   1.382       .  S
C1602      F2158   1.384   1_545  S
C1602      F1607   1.383       .  S
C1602      F1608   1.385       .  S
F1605      C2151   1.382   1_545  S
F1606      C2154   1.384       .  S
C1609      C1610   1.404       .  A
C1609      C1614   1.410       .  A
C1609      H1616   1.086       .  S
C1610      C1611   1.417       .  A
C1611      C1612   1.413       .  A
C1611      C1618   1.518       .  S
C1612      C1613   1.405       .  A
C1612      H1617   1.085       .  S
C1613      C1614   1.417       .  A
C1614      C1615   1.517       .  S
C1615      F1619   1.385       .  S
C1615      F1620   1.382       .  S
C1615      F1621   1.383       .  S
C1618      F1622   1.384       .  S
C1618      F1623   1.382       .  S
C1618      F1624   1.385       .  S
C1625      C1626   1.406       .  A
C1625      C1630   1.412       .  A
C1625      H1632   1.084       .  S
C1626      C1627   1.423       .  A
C1627      C1628   1.414       .  A
C1627      C1634   1.520       .  S
C1628      C1629   1.406       .  A
C1628      H1633   1.084       .  S
C1629      C1630   1.424       .  A
C1630      C1631   1.521       .  S
C1631      F1635   1.385       .  S
C1631      F1636   1.384       .  S
C1631      F1637   1.383       .  S
C1634      F1638   1.383       .  S
C1634      F1639   1.384       .  S
C1634      F1640   1.384       .  S
C1641      C1646   1.409       .  A
C1641      H1648   1.083       .  S
C1642      C1643   1.418       .  A
C1643      C1644   1.407       .  A
C1643      C1650   1.521       .  S
C1644      C1645   1.408       .  A
C1644      H1649   1.083       .  S
C1646      C1647   1.521       .  S
C1647      F1651   1.385       .  S
C1647      F1652   1.384       .  S
C1647      F1653   1.383       .  S
C1650      F1654   1.384       .  S
C1650      F1655   1.382   1_455  S
C1650      F1656   1.385       .  S
O1657      C1667   1.281       .  A
O1658      C1668   1.281       .  A
O1659     Ni1665   1.912       .  S
O1660      C1670   1.282   1_565  A
O1660     Ni1665   1.915       .  S
O1661     Ni1666   1.922       .  S
O1662     Ni1666   1.926       .  S
O1663      C1668   1.285       .  A
O1664      C1667   1.283       .  A
C1667      C2162   1.485       .  S
C1668      C2178   1.500       .  S
C1669      C2146   1.497       .  S
O1671      C1681   1.282       .  A
O1672      C1682   1.283       .  A
O1672     Ni1679   1.923       .  S
O1673      C1683   1.280       .  A
O1673     Ni1679   1.917       .  S
O1674      C1684   1.280       .  A
O1674     Ni1679   1.917       .  S
O1675     Ni1680   1.914       .  S
O1676     Ni1680   1.912       .  S
O1677      C1682   1.281       .  A
O1678      C1681   1.282       .  A
O1678     Ni1680   1.927       .  S
C1681      C2098   1.494       .  S
C1682      C2114   1.493       .  S
C1684      C2130   1.478       .  S
O1685      C1695   1.284       .  A
O1685     Ni1693   1.927       .  S
O1686      C1696   1.284       .  A
O1687      C1697   1.279       .  A
O1687     Ni1693   1.912       .  S
O1688      C1698   1.283       .  A
O1688     Ni1693   1.916       .  S
O1689     Ni1694   1.919       .  S
O1690     Ni1694   1.919       .  S
O1691      C1696   1.281       .  A
O1691     Ni1694   1.924       .  S
O1692      C1695   1.280       .  A
C1695      C2101   1.493       .  S
C1696      C2117   1.497       .  S
C1697      C2053   1.482       .  S
C1698      C2069   1.500       .  S
O1699      C1709   1.281       .  A
O1699     Ni1707   1.913       .  S
O1700      C1710   1.280       .  A
O1700     Ni1707   1.913       .  S
O1701      C1711   1.286       .  A
O1701     Ni1707   1.936       .  S
O1702      C1712   1.284       .  A
O1702     Ni1707   1.933       .  S
O1703      C1712   1.281       .  A
O1703     Ni1708   1.923       .  S
O1704      C1711   1.281       .  A
O1704     Ni1708   1.922       .  S
O1705      C1710   1.282       .  A
O1705     Ni1708   1.924       .  S
O1706      C1709   1.281       .  A
O1706     Ni1708   1.922       .  S
Ni1707    Ni1708   2.383       .  S
C1709      C2034   1.492       .  S
C1710      C2021   1.485       .  S
C1711      C2181   1.500       .  S
C1712      C2165   1.487       .  S
O1713      C1723   1.283   1_565  A
O1714      C1724   1.282   1_565  A
O1714     Ni1721   1.919   1_554  S
O1715      C1725   1.282   1_665  A
O1715     Ni1721   1.919       .  S
O1716      C1726   1.280   1_665  A
O1716     Ni1721   1.917   1_554  S
O1717     Ni1722   1.919   1_554  S
O1718     Ni1722   1.918       .  S
O1720     Ni1722   1.919       .  S
C1723      C1986   1.496       .  S
C1724      C1973   1.482       .  S
C1725      C2002   1.493   1_455  S
C1726      C2194   1.487       .  S
O1727      C1737   1.282       .  A
O1727     Ni1735   1.920       .  S
O1728      C1738   1.283       .  A
O1729      C1739   1.278       .  A
O1729     Ni1735   1.914       .  S
O1730      C1740   1.279       .  A
O1730     Ni1735   1.911   1_556  S
O1731     Ni1736   1.913   1_556  S
O1732     Ni1736   1.916       .  S
O1733      C1738   1.279       .  A
O1733     Ni1736   1.916       .  S
O1734      C1737   1.280       .  A
C1737      C1938   1.489   1_554  S
C1738      C1922   1.494       .  S
C1739      C2133   1.497       .  S
O1741      C1751   1.284       .  A
O1741     Ni1749   1.920   1_556  S
O1742      C1752   1.283   1_554  A
O1742     Ni1749   1.923       .  S
O1743      C1753   1.279       .  A
O1743     Ni1749   1.914   1_556  S
O1744      C1754   1.279       .  A
O1744     Ni1749   1.914       .  S
O1745     Ni1750   1.917   1_554  S
O1746     Ni1750   1.916       .  S
O1747     Ni1750   1.917       .  S
O1748     Ni1750   1.920       .  S
C1751      C1989   1.499       .  S
C1752      C1970   1.485       .  S
C1753      C1906   1.490       .  S
C1754      C2066   1.476       .  S
O1755      C1765   1.279       .  A
O1755     Ni1763   1.915   1_556  S
O1756      C1766   1.280       .  A
O1756     Ni1763   1.915       .  S
O1757      C1767   1.280       .  A
O1757     Ni1763   1.916   1_556  S
O1758      C1768   1.282       .  A
O1758     Ni1763   1.917       .  S
O1759      C1768   1.280       .  A
O1759     Ni1764   1.917       .  S
O1760      C1767   1.280       .  A
O1760     Ni1764   1.917   1_556  S
O1761      C1766   1.283       .  A
O1761     Ni1764   1.922       .  S
O1762      C1765   1.283       .  A
O1762     Ni1764   1.921   1_556  S
Ni1763    Ni1764   2.384       .  S
C1765      C1941   1.490       .  S
C1766      C1925   1.494       .  S
C1767      C1890   1.471       .  S
C1768      C2037   1.488       .  S
O1770     Ni1777   1.926       .  S
O1771     Ni1777   1.909       .  S
O1772      C1782   1.278       .  A
O1772     Ni1777   1.910       .  S
O1773     Ni1778   1.930       .  S
O1774     Ni1778   1.927       .  S
O1775      C1780   1.278       .  A
O1776      C1779   1.278       .  A
O1776     Ni1778   1.912       .  S
C1779      C1861   1.491       .  S
C1780      C1874   1.490       .  S
O1783     Ni1791   1.916       .  S
O1784     Ni1791   1.917       .  S
O1785     Ni1791   1.910       .  S
O1786     Ni1791   1.913       .  S
O1787      C1796   1.280       .  A
O1787     Ni1792   1.916       .  S
O1788      C1795   1.279       .  A
O1788     Ni1792   1.913       .  S
O1789      C1794   1.283       .  A
O1789     Ni1792   1.920       .  S
O1790      C1793   1.283       .  A
O1790     Ni1792   1.921       .  S
C1793      C1877   1.488       .  S
C1794      C1858   1.491       .  S
C1795      C1954   1.487       .  S
C1796      C2082   1.482       .  S
O1797      C1807   1.285       .  A
O1798      C1808   1.285       .  A
O1798     Ni1805   1.930       .  S
O1799     Ni1805   1.904       .  S
O1800     Ni1805   1.904       .  S
O1801      C1810   1.282       .  A
O1801     Ni1806   1.927       .  S
O1802      C1809   1.284       .  A
O1802     Ni1806   1.927       .  S
O1803      C1808   1.277       .  A
O1804      C1807   1.278       .  A
O1804     Ni1806   1.911       .  S
C1807      C1842   1.489       .  S
C1808      C1826   1.491       .  S
C1809      C1909   1.483       .  S
C1810      C2050   1.495       .  S
O1811      C1821   1.280       .  A
O1811     Ni1819   1.916       .  S
O1812      C1822   1.279       .  A
O1812     Ni1819   1.916       .  S
O1813      C1823   1.281       .  A
O1813     Ni1819   1.910       .  S
O1814      C1824   1.279       .  A
O1814     Ni1819   1.912       .  S
O1815      C1824   1.282       .  A
O1815     Ni1820   1.924       .  S
O1816      C1823   1.281       .  A
O1816     Ni1820   1.924       .  S
O1817      C1822   1.284       .  A
O1817     Ni1820   1.924       .  S
O1818      C1821   1.282       .  A
O1818     Ni1820   1.924       .  S
Ni1819    Ni1820   2.383       .  S
C1821      C1845   1.485       .  S
C1822      C1829   1.494       .  S
C1823      C2018   1.495       .  S
C1824      C1893   1.478       .  S
C1825      C1826   1.404       .  A
C1825      C1830   1.410       .  A
C1825      H1832   1.082       .  S
C1826      C1827   1.424       .  A
C1827      C1828   1.408       .  A
C1827      C1834   1.522       .  S
C1828      C1829   1.405       .  A
C1828      H1833   1.082       .  S
C1829      C1830   1.424       .  A
C1830      C1831   1.521       .  S
C1831      F1835   1.385       .  S
C1831      F1836   1.383       .  S
C1831      F1837   1.384       .  S
C1834      F1838   1.384       .  S
C1834      F1839   1.383       .  S
C1834      F1840   1.385       .  S
C1841      C1842   1.404       .  A
C1841      C1846   1.409       .  A
C1841      H1848   1.085       .  S
C1842      C1843   1.423       .  A
C1843      C1844   1.409       .  A
C1843      C1850   1.520       .  S
C1844      C1845   1.403       .  A
C1844      H1849   1.084       .  S
C1845      C1846   1.419       .  A
C1846      C1847   1.520       .  S
C1847      F1851   1.384       .  S
C1847      F1852   1.384       .  S
C1847      F1853   1.382       .  S
C1850      F1854   1.383       .  S
C1850      F1855   1.383       .  S
C1850      F1856   1.385       .  S
C1857      C1858   1.405       .  A
C1857      C1862   1.408       .  A
C1857      H1864   1.082       .  S
C1859      C1860   1.409       .  A
C1859      C1866   1.521       .  S
C1860      H1865   1.082       .  S
C1861      C1862   1.423       .  A
C1862      C1863   1.522       .  S
C1863      F1867   1.385       .  S
C1863      F1868   1.384       .  S
C1863      F1869   1.383       .  S
C1866      F1870   1.383       .  S
C1866      F1871   1.384       .  S
C1866      F1872   1.385       .  S
C1873      C1878   1.408       .  A
C1873      H1880   1.083       .  S
C1874      C1875   1.423       .  A
C1875      C1876   1.408       .  A
C1875      C1882   1.521       .  S
C1876      C1877   1.404       .  A
C1876      H1881   1.083       .  S
C1878      C1879   1.521       .  S
C1879      F1883   1.385       .  S
C1879      F1884   1.384       .  S
C1879      F1885   1.382       .  S
C1882      F1886   1.383       .  S
C1882      F1887   1.382       .  S
C1882      F1888   1.385       .  S
C1889      C1890   1.401       .  A
C1889      C1894   1.407       .  A
C1889      H1896   1.085       .  S
C1890      C1891   1.413       .  A
C1891      C1892   1.406       .  A
C1891      C1898   1.519       .  S
C1892      C1893   1.404       .  A
C1892      H1897   1.085       .  S
C1893      C1894   1.417       .  A
C1894      C1895   1.517       .  S
C1895      F1899   1.385       .  S
C1895      F1900   1.382       .  S
C1895      F1901   1.383       .  S
C1898      F1902   1.382       .  S
C1898      F1903   1.383       .  S
C1898      F1904   1.384       .  S
C1905      C1910   1.404       .  A
C1905      H1912   1.082       .  S
C1906      C1907   1.424       .  A
C1907      C1908   1.409       .  A
C1907      C1914   1.520       .  S
C1908      C1909   1.402       .  A
C1908      H1913   1.081       .  S
C1910      C1911   1.523       .  S
C1911      F1915   1.385       .  S
C1911      F1916   1.383       .  S
C1911      F1917   1.382       .  S
C1914      F1918   1.384       .  S
C1914      F1919   1.383       .  S
C1914      F1920   1.385       .  S
C1921      C1922   1.405   1_556  A
C1921      C1926   1.407       .  A
C1921      H1928   1.083       .  S
C1922      C1923   1.423       .  A
C1923      C1924   1.411       .  A
C1923      C1930   1.521       .  S
C1924      C1925   1.407       .  A
C1924      H1929   1.083       .  S
C1925      C1926   1.423   1_554  A
C1926      C1927   1.522       .  S
C1927      F1931   1.385       .  S
C1927      F1932   1.383       .  S
C1927      F1933   1.384       .  S
C1930      F1934   1.383       .  S
C1930      F1935   1.384       .  S
C1930      F1936   1.385       .  S
C1937      C1938   1.405   1_554  A
C1937      C1942   1.409       .  A
C1937      H1944   1.084       .  S
C1938      C1939   1.421       .  A
C1939      C1940   1.407       .  A
C1939      C1946   1.521       .  S
C1940      C1941   1.405       .  A
C1940      H1945   1.084       .  S
C1941      C1942   1.422   1_556  A
C1942      C1943   1.521       .  S
C1943      F1947   1.385       .  S
C1943      F1948   1.383       .  S
C1943      F1949   1.383       .  S
C1946      F1950   1.384       .  S
C1946      F1951   1.383       .  S
C1946      F1952   1.385       .  S
C1953      C1958   1.403       .  A
C1953      H1960   1.082       .  S
C1954      C1955   1.424       .  A
C1955      C1956   1.406       .  A
C1955      C1962   1.522       .  S
C1956      C1957   1.402       .  A
C1956      H1961   1.083       .  S
C1958      C1959   1.521       .  S
C1959      F1963   1.385       .  S
C1959      F1964   1.384       .  S
C1959      F1965   1.382       .  S
C1962      F1966   1.384       .  S
C1962      F1967   1.383       .  S
C1962      F1968   1.385       .  S
C1969      C1970   1.405   1_554  A
C1969      C1974   1.409       .  A
C1969      H1976   1.082       .  S
C1971      C1972   1.407       .  A
C1971      C1978   1.520       .  S
C1972      C1973   1.402   1_566  A
C1972      H1977   1.082       .  S
C1974      C1975   1.519       .  S
C1975      F1979   1.385       .  S
C1975      F1980   1.382       .  S
C1975      F1981   1.383       .  S
C1978      F1982   1.384       .  S
C1978      F1983   1.382       .  S
C1978      F1984   1.385       .  S
C1985      C1986   1.406   1_565  A
C1985      C1990   1.411       .  A
C1985      H1992   1.083       .  S
C1987      C1988   1.408       .  A
C1987      C1994   1.522       .  S
C1988      C1989   1.407   1_554  A
C1988      H1993   1.083       .  S
C1990      C1991   1.522       .  S
C1991      F1995   1.385       .  S
C1991      F1996   1.383       .  S
C1991      F1997   1.383       .  S
C1994      F1998   1.384       .  S
C1994      F1999   1.383       .  S
C1994      F2000   1.385       .  S
C2001      C2006   1.408       .  A
C2001      H2008   1.084       .  S
C2003      C2004   1.408       .  A
C2003      C2010   1.521       .  S
C2004      H2009   1.085       .  S
C2006      C2007   1.517       .  S
C2007      F2011   1.384       .  S
C2007      F2012   1.382       .  S
C2007      F2013   1.383       .  S
C2010      F2014   1.383   1_655  S
C2010      F2015   1.384       .  S
C2010      F2016   1.385       .  S
C2017      C2018   1.409       .  A
C2017      C2022   1.405       .  A
C2017      H2024   1.083       .  S
C2018      C2019   1.424       .  A
C2019      C2020   1.410       .  A
C2019      C2026   1.521       .  S
C2020      C2021   1.405       .  A
C2020      H2025   1.084       .  S
C2021      C2022   1.415       .  A
C2022      C2023   1.520       .  S
C2023      F2027   1.385       .  S
C2023      F2028   1.384       .  S
C2023      F2029   1.382       .  S
C2026      F2030   1.383       .  S
C2026      F2031   1.383       .  S
C2026      F2032   1.385       .  S
C2033      C2034   1.407       .  A
C2033      C2038   1.406       .  A
C2033      H2040   1.082       .  S
C2034      C2035   1.422       .  A
C2035      C2036   1.409       .  A
C2035      C2042   1.521       .  S
C2036      C2037   1.406       .  A
C2036      H2041   1.082       .  S
C2037      C2038   1.419       .  A
C2038      C2039   1.522       .  S
C2039      F2043   1.385       .  S
C2039      F2044   1.384       .  S
C2039      F2045   1.382       .  S
C2042      F2046   1.382       .  S
C2042      F2047   1.383       .  S
C2042      F2048   1.385       .  S
C2049      C2050   1.410       .  A
C2049      C2054   1.405       .  A
C2049      H2056   1.084       .  S
C2051      C2052   1.409   1_545  A
C2051      C2058   1.520       .  S
C2052      H2057   1.085   1_565  S
C2053      C2054   1.416       .  A
C2054      C2055   1.521       .  S
C2055      F2061   1.382       .  S
C2058      F2062   1.384   1_545  S
C2065      C2070   1.409       .  A
C2065      H2072   1.081       .  S
C2066      C2067   1.413       .  A
C2067      C2068   1.406       .  A
C2067      C2074   1.522       .  S
C2068      C2069   1.412       .  A
C2068      H2073   1.080       .  S
C2070      C2071   1.522       .  S
C2071      F2075   1.385       .  S
C2071      F2076   1.381       .  S
C2071      F2077   1.383       .  S
C2074      F2078   1.383       .  S
C2074      F2079   1.382       .  S
C2074      F2080   1.385       .  S
C2081      C2086   1.406       .  A
C2081      H2088   1.082       .  S
C2082      C2083   1.418       .  A
C2083      C2084   1.406       .  A
C2083      C2090   1.521       .  S
C2084      C2085   1.408       .  A
C2084      H2089   1.081       .  S
C2086      C2087   1.521       .  S
C2087      F2091   1.385       .  S
C2087      F2092   1.384       .  S
C2087      F2093   1.382       .  S
C2090      F2094   1.384       .  S
C2090      F2095   1.382       .  S
C2090      F2096   1.385       .  S
C2097      C2098   1.406       .  A
C2097      C2102   1.411       .  A
C2097      H2104   1.079       .  S
C2098      C2099   1.421       .  A
C2099      C2100   1.411       .  A
C2099      C2106   1.520       .  S
C2100      C2101   1.406       .  A
C2100      H2105   1.080       .  S
C2101      C2102   1.422       .  A
C2102      C2103   1.520       .  S
C2103      F2107   1.385       .  S
C2103      F2108   1.383       .  S
C2103      F2109   1.383       .  S
C2106      F2110   1.382       .  S
C2106      F2111   1.384       .  S
C2106      F2112   1.385       .  S
C2113      C2114   1.405       .  A
C2113      C2118   1.410       .  A
C2113      H2120   1.082       .  S
C2114      C2115   1.421       .  A
C2115      C2116   1.411       .  A
C2115      C2122   1.520       .  S
C2116      C2117   1.406       .  A
C2116      H2121   1.081       .  S
C2117      C2118   1.423       .  A
C2118      C2119   1.519       .  S
C2119      F2123   1.385       .  S
C2119      F2124   1.382       .  S
C2119      F2125   1.382       .  S
C2122      F2126   1.384       .  S
C2122      F2127   1.382       .  S
C2122      F2128   1.385       .  S
C2129      C2130   1.400       .  A
C2129      C2134   1.408       .  A
C2129      H2136   1.086       .  S
C2131      C2132   1.405       .  A
C2131      C2138   1.519       .  S
C2132      H2137   1.084       .  S
C2133      C2134   1.428       .  A
C2134      C2135   1.523       .  S
C2135      F2139   1.385       .  S
C2135      F2140   1.383       .  S
C2135      F2141   1.384       .  S
C2138      F2142   1.383       .  S
C2138      F2143   1.382   1_655  S
C2138      F2144   1.385       .  S
C2145      C2150   1.404       .  A
C2145      H2152   1.082       .  S
C2147      C2148   1.412       .  A
C2147      C2154   1.520       .  S
C2148      C2149   1.404       .  A
C2148      H2153   1.081       .  S
C2150      C2151   1.521       .  S
C2151      F2155   1.385       .  S
C2151      F2156   1.384       .  S
C2154      F2159   1.383       .  S
C2154      F2160   1.385       .  S
C2161      C2162   1.404       .  A
C2161      C2166   1.410       .  A
C2161      H2168   1.086       .  S
C2162      C2163   1.417       .  A
C2163      C2164   1.413       .  A
C2163      C2170   1.518       .  S
C2164      C2165   1.405       .  A
C2164      H2169   1.085       .  S
C2165      C2166   1.417       .  A
C2166      C2167   1.517       .  S
C2167      F2171   1.385       .  S
C2167      F2172   1.382       .  S
C2167      F2173   1.383       .  S
C2170      F2174   1.384       .  S
C2170      F2175   1.382       .  S
C2170      F2176   1.385       .  S
C2177      C2178   1.406       .  A
C2177      C2182   1.412       .  A
C2177      H2184   1.084       .  S
C2178      C2179   1.423       .  A
C2179      C2180   1.414       .  A
C2179      C2186   1.520       .  S
C2180      C2181   1.406       .  A
C2180      H2185   1.084       .  S
C2181      C2182   1.424       .  A
C2182      C2183   1.521       .  S
C2183      F2187   1.385       .  S
C2183      F2188   1.384       .  S
C2183      F2189   1.383       .  S
C2186      F2190   1.383       .  S
C2186      F2191   1.384       .  S
C2186      F2192   1.384       .  S
C2193      C2198   1.409       .  A
C2193      H2200   1.083       .  S
C2194      C2195   1.418   1_545  A
C2195      C2196   1.407       .  A
C2195      C2202   1.521       .  S
C2196      C2197   1.408   1_565  A
C2196      H2201   1.083       .  S
C2198      C2199   1.521       .  S
C2199      F2203   1.385       .  S
C2199      F2204   1.384       .  S
C2199      F2205   1.383       .  S
C2202      F2206   1.384       .  S
C2202      F2207   1.382   1_455  S
C2202      F2208   1.385       .  S
