geometry optimzed in LAMMPS
_audit_creation_date              2020-12-01 
_audit_creation_method            'lammps2cif' 
_symmetry_space_group_name_H-M    'P1' 
_symmetry_Int_Tables_number       1 
_symmetry_cell_setting            triclinic 
loop_ 
_symmetry_equiv_pos_as_xyz 
  x,y,z 
_cell_length_a                    31.21833984 
_cell_length_b                    31.219125401506428 
_cell_length_c                    49.17931673598283 
_cell_angle_alpha                 90.0120895038476 
_cell_angle_beta                  89.9870075411945 
_cell_angle_gamma                 120.05638983941246 
loop_ 
_atom_site_label 
_atom_site_type_symbol 
_atom_site_fract_x 
_atom_site_fract_y 
_atom_site_fract_z 
_atom_site_charge 
O1          O  0.15674278  0.04792975  0.47014565    -0.74100
O2          O  0.10880543  0.28523718  0.02988796    -0.74100
O3          O  0.15533221  0.05104363  0.02539974    -0.74200
O4          O  0.10424226  0.28212917  0.47463887    -0.74300
O5          O  0.17673334  0.28533045  0.47013097    -0.74200
O6          O  0.22474128  0.04806602  0.02986259    -0.74200
O7          O  0.17820888  0.28225536  0.02538384    -0.74100
O8          O  0.22923684  0.05113046  0.47461123    -0.74200
Ni9        Ni  0.12864435  0.33324609  0.00001995     1.25400
Ni10       Ni  0.20486609  0.00003357  0.49999752     1.25400
C11         C  0.20219611  0.06510961  0.46279024     0.88100
C12         C  0.13714702  0.26816201  0.03721802     0.88000
C13         C  0.19640909  0.06514879  0.03721111     0.88000
C14         C  0.13127360  0.26814915  0.46279680     0.88200
C15         C  0.10719755  0.20690748  0.39342602     0.03400
C16         C  0.05477328  0.18209393  0.39350210    -0.12700
C17         C  0.02794744  0.18059737  0.41663347     0.00900
C18         C  0.05476361  0.20591027  0.43977551    -0.11200
C19         C  0.10718989  0.23349236  0.43988267     0.03400
C20         C  0.13343301  0.23331479  0.41666054    -0.10700
H21         H  0.03449716  0.16149992  0.37569682     0.09000
H22         H  0.03447751  0.20622788  0.45757141     0.06600
H23         H  0.17351620  0.25334163  0.41667132     0.06400
C24         C  0.22627171  0.12639119  0.39343474     0.03400
C25         C  0.20003040  0.09996147  0.41666484    -0.12700
C26         C  0.22627085  0.09977854  0.43988085     0.00900
C27         C  0.27869645  0.12737654  0.43977219    -0.11200
C28         C  0.30551744  0.15270762  0.41663499     0.03400
C29         C  0.27869726  0.15121857  0.39351011    -0.10700
H30         H  0.15994809  0.07992076  0.41667640     0.09000
H31         H  0.29898006  0.12705588  0.45756225     0.06600
H32         H  0.29897998  0.17182448  0.37570853     0.06400
O33         O  0.04805494  0.15663830  0.19653266    -0.74100
O34         O  0.28536035  0.10868965  0.13679073    -0.74100
O35         O  0.05116872  0.15522108  0.14127788    -0.74200
O36         O  0.28225284  0.10413254  0.19204032    -0.74300
O37         O  0.28544450  0.17661792  0.19654259    -0.74200
O38         O  0.04819405  0.22463019  0.13681497    -0.74200
O39         O  0.28238120  0.17809375  0.14128794    -0.74100
O40         O  0.05124701  0.22912637  0.19206644    -0.74200
Ni41       Ni  0.00003732  0.12853453  0.16665859     1.25400
Ni42       Ni  0.00015428  0.20475267  0.16667740     1.25400
C43         C  0.06522896  0.20208917  0.20388852     0.88100
C44         C  0.26828653  0.13703021  0.12945702     0.88000
C45         C  0.06527607  0.19629780  0.12946668     0.88000
C46         C  0.26826795  0.13116130  0.20388008     0.88200
C47         C  0.23362228  0.12645461  0.10655782     0.03400
C48         C  0.23341813  0.10003523  0.08333065    -0.12700
C49         C  0.20700930  0.09983618  0.06010686     0.00900
C50         C  0.18219986  0.12741012  0.06020137    -0.11200
C51         C  0.18073597  0.15275327  0.08333654     0.03400
C52         C  0.20606660  0.15128303  0.10646856    -0.10700
H53         H  0.25343308  0.08000202  0.08332881     0.09000
H54         H  0.16159615  0.12706282  0.04240433     0.06600
H55         H  0.20641463  0.17189324  0.12426905     0.06400
C56         C  0.12657589  0.23350105  0.06011806     0.03400
C57         C  0.15140639  0.20594711  0.06020780    -0.12700
C58         C  0.15287723  0.18061865  0.08334089     0.00900
C59         C  0.12753939  0.18208947  0.10647724    -0.11200
C60         C  0.09996407  0.20689724  0.10657092     0.03400
C61         C  0.10015761  0.23329907  0.08334552    -0.10700
H62         H  0.17201445  0.20629246  0.04240719     0.09000
H63         H  0.12719381  0.16148944  0.12427546     0.06600
H64         H  0.08012143  0.25331068  0.08334649     0.06400
O65         O  0.17673023  0.22464070  0.36318951    -0.74100
O66         O  0.22475596  0.17661206  0.30349020    -0.74100
O67         O  0.17820560  0.22912562  0.30793826    -0.74200
O68         O  0.22923601  0.17808253  0.35874236    -0.74300
O69         O  0.15674962  0.10864638  0.36319673    -0.74200
O70         O  0.10876691  0.15664288  0.30348206    -0.74200
O71         O  0.15531498  0.10412997  0.30794598    -0.74100
O72         O  0.10424501  0.15520322  0.35873368    -0.74200
Ni73       Ni  0.20486650  0.20474941  0.33334019     1.25400
Ni74       Ni  0.12863450  0.12852135  0.33333966     1.25400
C75         C  0.13127464  0.19629646  0.37053913     0.88100
C76         C  0.19640924  0.13115847  0.29613988     0.88000
C77         C  0.13711855  0.20209309  0.29613025     0.88000
C78         C  0.20220061  0.13699447  0.37054874     0.88500
C79         C  0.20701811  0.10708246  0.27325146     0.03400
C80         C  0.23343013  0.13331861  0.25001729    -0.12700
C81         C  0.23361037  0.10707758  0.22679508     0.00900
C82         C  0.20603033  0.05465268  0.22690286    -0.11200
C83         C  0.18071293  0.02783651  0.25004415     0.03400
C84         C  0.18220126  0.05465940  0.27317428    -0.10700
H85         H  0.25345870  0.17340105  0.25000684     0.09000
H86         H  0.20635146  0.03436715  0.20910793     0.06600
H87         H  0.16160187  0.03438049  0.29097907     0.06400
C88         C  0.12651995  0.22616598  0.27324285     0.03400
C89         C  0.15135145  0.27859042  0.27316579    -0.12700
C90         C  0.15282808  0.30540896  0.25004291     0.00900
C91         C  0.12748909  0.27858920  0.22690789    -0.11200
C92         C  0.09989552  0.22616499  0.22679883     0.03400
C93         C  0.10008399  0.19992556  0.25001425    -0.10700
H94         H  0.17196475  0.29887444  0.29096533     0.09000
H95         H  0.12716226  0.29887373  0.20911906     0.06600
H96         H  0.08004259  0.15984393  0.25000329     0.06400
O97         O  0.15674291  0.04792993  0.97014569    -0.74100
O98         O  0.10880540  0.28523709  0.52988792    -0.74100
O99         O  0.15533207  0.05104357  0.52539981    -0.74200
O100        O  0.10424236  0.28212928  0.97463879    -0.74300
O101        O  0.17673335  0.28533044  0.97013096    -0.74200
O102        O  0.22474125  0.04806613  0.52986256    -0.74200
O103        O  0.17820897  0.28225541  0.52538386    -0.74100
O104        O  0.22923694  0.05113059  0.97461130    -0.74200
Ni105      Ni  0.12864427  0.33324602  0.50001996     1.25400
Ni106      Ni  0.20486616  0.00003355  0.99999754     1.25400
C107        C  0.20219624  0.06510978  0.96279030     0.88100
C108        C  0.13714706  0.26816200  0.53721800     0.88000
C109        C  0.19640901  0.06514878  0.53721116     0.88000
C110        C  0.13127367  0.26814923  0.96279674     0.88200
C111        C  0.10719751  0.20690748  0.89342601     0.03400
C112        C  0.05477339  0.18209411  0.89350217    -0.12700
C113        C  0.02794743  0.18059733  0.91663347     0.00900
C114        C  0.05476362  0.20591020  0.93977553    -0.11200
C115        C  0.10718988  0.23349233  0.93988265     0.03400
C116        C  0.13343321  0.23331481  0.91666056    -0.10700
H117        H  0.03449672  0.16149963  0.87569635     0.09000
H118        H  0.03447751  0.20622780  0.95757141     0.06600
H119        H  0.17351525  0.25334106  0.91667134     0.06400
C120        C  0.22627171  0.12639119  0.89343477     0.03400
C121        C  0.20003058  0.09996161  0.91666488    -0.12700
C122        C  0.22627093  0.09977860  0.93988089     0.00900
C123        C  0.27869644  0.12737659  0.93977217    -0.11200
C124        C  0.30551748  0.15270757  0.91663501     0.03400
C125        C  0.27869728  0.15121849  0.89351011    -0.10700
H126        H  0.15994761  0.07992065  0.91667647     0.09000
H127        H  0.29898042  0.12705601  0.95756262     0.06600
H128        H  0.29897996  0.17182436  0.87570855     0.06400
O129        O  0.04805483  0.15663829  0.69653271    -0.74100
O130        O  0.28536020  0.10868969  0.63679079    -0.74100
O131        O  0.05116877  0.15522102  0.64127791    -0.74200
O132        O  0.28225279  0.10413250  0.69204034    -0.74300
O133        O  0.28544445  0.17661787  0.69654260    -0.74200
O134        O  0.04819398  0.22463009  0.63681499    -0.74200
O135        O  0.28238124  0.17809389  0.64128796    -0.74100
O136        O  0.05124694  0.22912639  0.69206645    -0.74200
Ni137      Ni  0.00003732  0.12853449  0.66665860     1.25400
Ni138      Ni  0.00015423  0.20475263  0.66667743     1.25400
C139        C  0.06522885  0.20208917  0.70388854     0.88100
C140        C  0.26828651  0.13703037  0.62945706     0.88000
C141        C  0.06527599  0.19629768  0.62946667     0.88000
C142        C  0.26826793  0.13116128  0.70388010     0.88200
C143        C  0.23362230  0.12645475  0.60655784     0.03400
C144        C  0.23341809  0.10003542  0.58333072    -0.12700
C145        C  0.20700928  0.09983619  0.56010690     0.00900
C146        C  0.18219994  0.12741015  0.56020145    -0.11200
C147        C  0.18073605  0.15275339  0.58333650     0.03400
C148        C  0.20606664  0.15128327  0.60646863    -0.10700
H149        H  0.25343348  0.08000179  0.58332890     0.09000
H150        H  0.16159574  0.12706274  0.54240404     0.06600
H151        H  0.20641463  0.17189305  0.62426874     0.06400
C152        C  0.12657588  0.23350107  0.56011804     0.03400
C153        C  0.15140637  0.20594712  0.56020779    -0.12700
C154        C  0.15287725  0.18061868  0.58334087     0.00900
C155        C  0.12753934  0.18208946  0.60647713    -0.11200
C156        C  0.09996396  0.20689714  0.60657090     0.03400
C157        C  0.10015777  0.23329895  0.58334552    -0.10700
H158        H  0.17201451  0.20629245  0.54240709     0.09000
H159        H  0.12719373  0.16148898  0.62427565     0.06600
H160        H  0.08012078  0.25331146  0.58334652     0.06400
O161        O  0.17673019  0.22464079  0.86318944    -0.74100
O162        O  0.22475595  0.17661197  0.80349020    -0.74100
O163        O  0.17820560  0.22912576  0.80793828    -0.74200
O164        O  0.22923601  0.17808248  0.85874234    -0.74300
O165        O  0.15674954  0.10864643  0.86319681    -0.74200
O166        O  0.10876696  0.15664297  0.80348206    -0.74200
O167        O  0.15531493  0.10412989  0.80794605    -0.74100
O168        O  0.10424498  0.15520322  0.85873372    -0.74200
Ni169      Ni  0.20486650  0.20474942  0.83334016     1.25400
Ni170      Ni  0.12863443  0.12852133  0.83333970     1.25400
C171        C  0.13127464  0.19629654  0.87053911     0.88100
C172        C  0.19640916  0.13115835  0.79613991     0.88000
C173        C  0.13711857  0.20209324  0.79613027     0.88000
C174        C  0.20220058  0.13699450  0.87054879     0.88500
C175        C  0.20701797  0.10708237  0.77325145     0.03400
C176        C  0.23342997  0.13331856  0.75001730    -0.12700
C177        C  0.23361029  0.10707760  0.72679507     0.00900
C178        C  0.20603019  0.05465271  0.72690275    -0.11200
C179        C  0.18071297  0.02783651  0.75004407     0.03400
C180        C  0.18220122  0.05465924  0.77317432    -0.10700
H181        H  0.25345851  0.17340096  0.75000692     0.09000
H182        H  0.20635127  0.03436739  0.70910788     0.06600
H183        H  0.16160236  0.03438077  0.79097873     0.06400
C184        C  0.12651997  0.22616607  0.77324282     0.03400
C185        C  0.15135145  0.27859057  0.77316579    -0.12700
C186        C  0.15282815  0.30540895  0.75004280     0.00900
C187        C  0.12748919  0.27858924  0.72690773    -0.11200
C188        C  0.09989545  0.22616498  0.72679882     0.03400
C189        C  0.10008391  0.19992560  0.75001426    -0.10700
H190        H  0.17196421  0.29887425  0.79096501     0.09000
H191        H  0.12716241  0.29887331  0.70911919     0.06600
H192        H  0.08004252  0.15984408  0.75000334     0.06400
O193        O  0.15674274  0.38126309  0.47014564    -0.74100
O194        O  0.10880548  0.61857054  0.02988797    -0.74100
O195        O  0.15533210  0.38437697  0.02539975    -0.74200
O196        O  0.10424236  0.61546255  0.47463887    -0.74300
O197        O  0.17673340  0.61866384  0.47013095    -0.74200
O198        O  0.22474114  0.38139934  0.02986258    -0.74200
O199        O  0.17820894  0.61558869  0.02538385    -0.74100
O200        O  0.22923681  0.38446380  0.47461124    -0.74200
Ni201      Ni  0.12864435  0.66657943  0.00001997     1.25400
Ni202      Ni  0.20486615  0.33336691  0.49999753     1.25400
C203        C  0.20219608  0.39844294  0.46279023     0.88100
C204        C  0.13714708  0.60149534  0.03721802     0.88000
C205        C  0.19640898  0.39848212  0.03721111     0.88000
C206        C  0.13127370  0.60148258  0.46279677     0.88200
C207        C  0.10719752  0.54024081  0.39342601     0.03400
C208        C  0.05477333  0.51542728  0.39350213    -0.12700
C209        C  0.02794746  0.51393067  0.41663348     0.00900
C210        C  0.05476368  0.53924360  0.43977552    -0.11200
C211        C  0.10718992  0.56682576  0.43988265     0.03400
C212        C  0.13343323  0.56664823  0.41666053    -0.10700
H213        H  0.03449702  0.49483310  0.37569668     0.09000
H214        H  0.03447753  0.53956120  0.45757146     0.06600
H215        H  0.17351527  0.58667448  0.41667130     0.06400
C216        C  0.22627175  0.45972450  0.39343472     0.03400
C217        C  0.20003045  0.43329477  0.41666481    -0.12700
C218        C  0.22627088  0.43311186  0.43988085     0.00900
C219        C  0.27869641  0.46070991  0.43977216    -0.11200
C220        C  0.30551749  0.48604096  0.41663500     0.03400
C221        C  0.27869730  0.48455187  0.39351010    -0.10700
H222        H  0.15994819  0.41325407  0.41667638     0.09000
H223        H  0.29898037  0.46038929  0.45756256     0.06600
H224        H  0.29898006  0.50515783  0.37570850     0.06400
O225        O  0.04805484  0.48997161  0.19653271    -0.74100
O226        O  0.28536020  0.44202297  0.13679075    -0.74100
O227        O  0.05116888  0.48855448  0.14127798    -0.74200
O228        O  0.28225286  0.43746589  0.19204037    -0.74300
O229        O  0.28544447  0.50995125  0.19654256    -0.74200
O230        O  0.04819402  0.55796349  0.13681497    -0.74200
O231        O  0.28238114  0.51142711  0.14128794    -0.74100
O232        O  0.05124701  0.56245974  0.19206641    -0.74200
Ni233      Ni  0.00003735  0.46186787  0.16665861     1.25400
Ni234      Ni  0.00015427  0.53808602  0.16667739     1.25400
C235        C  0.06522888  0.53542251  0.20388853     0.88100
C236        C  0.26828643  0.47036357  0.12945703     0.88000
C237        C  0.06527609  0.52963110  0.12946671     0.88000
C238        C  0.26826797  0.46449467  0.20388010     0.88200
C239        C  0.23362223  0.45978796  0.10655781     0.03400
C240        C  0.23341806  0.43336857  0.08333066    -0.12700
C241        C  0.20700930  0.43316953  0.06010685     0.00900
C242        C  0.18219996  0.46074350  0.06020140    -0.11200
C243        C  0.18073593  0.48608658  0.08333653     0.03400
C244        C  0.20606653  0.48461634  0.10646857    -0.10700
H245        H  0.25343309  0.41333515  0.08332885     0.09000
H246        H  0.16159599  0.46039624  0.04240408     0.06600
H247        H  0.20641454  0.50522650  0.12426903     0.06400
C248        C  0.12657588  0.56683437  0.06011805     0.03400
C249        C  0.15140649  0.53928045  0.06020775    -0.12700
C250        C  0.15287727  0.51395202  0.08334090     0.00900
C251        C  0.12753943  0.51542278  0.10647726    -0.11200
C252        C  0.09996402  0.54023054  0.10657092     0.03400
C253        C  0.10015779  0.56663228  0.08334553    -0.10700
H254        H  0.17201419  0.53962578  0.04240744     0.09000
H255        H  0.12719383  0.49482289  0.12427532     0.06600
H256        H  0.08012085  0.58664477  0.08334652     0.06400
O257        O  0.17673020  0.55797405  0.36318949    -0.74100
O258        O  0.22475602  0.50994540  0.30349021    -0.74100
O259        O  0.17820557  0.56245897  0.30793828    -0.74200
O260        O  0.22923606  0.51141584  0.35874235    -0.74300
O261        O  0.15674957  0.44197978  0.36319676    -0.74200
O262        O  0.10876691  0.48997620  0.30348204    -0.74200
O263        O  0.15531499  0.43746332  0.30794600    -0.74100
O264        O  0.10424497  0.48853655  0.35873369    -0.74200
Ni265      Ni  0.20486653  0.53808276  0.33334019     1.25400
Ni266      Ni  0.12863446  0.46185469  0.33333967     1.25400
C267        C  0.13127463  0.52962982  0.37053912     0.88100
C268        C  0.19640923  0.46449181  0.29613988     0.88000
C269        C  0.13711853  0.53542643  0.29613025     0.88000
C270        C  0.20220060  0.47032780  0.37054875     0.88500
C271        C  0.20701803  0.44041581  0.27325144     0.03400
C272        C  0.23343000  0.46665200  0.25001727    -0.12700
C273        C  0.23361031  0.44041097  0.22679508     0.00900
C274        C  0.20603020  0.38798615  0.22690288    -0.11200
C275        C  0.18071287  0.36116987  0.25004413     0.03400
C276        C  0.18220133  0.38799277  0.27317430    -0.10700
H277        H  0.25345854  0.50673442  0.25000683     0.09000
H278        H  0.20635133  0.36770033  0.20910766     0.06600
H279        H  0.16160205  0.36771381  0.29097917     0.06400
C280        C  0.12651993  0.55949930  0.27324285     0.03400
C281        C  0.15135137  0.61192373  0.27316579    -0.12700
C282        C  0.15282810  0.63874227  0.25004291     0.00900
C283        C  0.12748900  0.61192256  0.22690788    -0.11200
C284        C  0.09989538  0.55949832  0.22679886     0.03400
C285        C  0.10008390  0.53325889  0.25001425    -0.10700
H286        H  0.17196462  0.63220779  0.29096541     0.09000
H287        H  0.12716218  0.63220690  0.20911922     0.06600
H288        H  0.08004250  0.49317726  0.25000328     0.06400
O289        O  0.15674286  0.38126325  0.97014568    -0.74100
O290        O  0.10880534  0.61857041  0.52988793    -0.74100
O291        O  0.15533213  0.38437690  0.52539980    -0.74200
O292        O  0.10424243  0.61546254  0.97463888    -0.74300
O293        O  0.17673348  0.61866379  0.97013096    -0.74200
O294        O  0.22474133  0.38139947  0.52986257    -0.74200
O295        O  0.17820890  0.61558875  0.52538385    -0.74100
O296        O  0.22923687  0.38446393  0.97461130    -0.74200
Ni297      Ni  0.12864432  0.66657936  0.50001998     1.25400
Ni298      Ni  0.20486606  0.33336689  0.99999754     1.25400
C299        C  0.20219617  0.39844312  0.96279030     0.88100
C300        C  0.13714703  0.60149532  0.53721800     0.88000
C301        C  0.19640905  0.39848210  0.53721116     0.88000
C302        C  0.13127373  0.60148254  0.96279679     0.88200
C303        C  0.10719759  0.54024082  0.89342602     0.03400
C304        C  0.05477344  0.51542741  0.89350218    -0.12700
C305        C  0.02794748  0.51393063  0.91663347     0.00900
C306        C  0.05476356  0.53924357  0.93977559    -0.11200
C307        C  0.10718994  0.56682570  0.93988267     0.03400
C308        C  0.13343305  0.56664809  0.91666057    -0.10700
H309        H  0.03449682  0.49483295  0.87569636     0.09000
H310        H  0.03447783  0.53956121  0.95757111     0.06600
H311        H  0.17351625  0.58667494  0.91667135     0.06400
C312        C  0.22627168  0.45972456  0.89343478     0.03400
C313        C  0.20003035  0.43329491  0.91666489    -0.12700
C314        C  0.22627088  0.43311196  0.93988090     0.00900
C315        C  0.27869639  0.46070986  0.93977216    -0.11200
C316        C  0.30551743  0.48604091  0.91663501     0.03400
C317        C  0.27869719  0.48455184  0.89351014    -0.10700
H318        H  0.15994823  0.41325436  0.91667647     0.09000
H319        H  0.29898035  0.46038916  0.95756250     0.06600
H320        H  0.29897997  0.50515778  0.87570847     0.06400
O321        O  0.04805489  0.48997163  0.69653268    -0.74100
O322        O  0.28536032  0.44202304  0.63679078    -0.74100
O323        O  0.05116866  0.48855435  0.64127789    -0.74200
O324        O  0.28225272  0.43746581  0.69204028    -0.74300
O325        O  0.28544447  0.50995122  0.69654262    -0.74200
O326        O  0.04819400  0.55796346  0.63681498    -0.74200
O327        O  0.28238125  0.51142720  0.64128797    -0.74100
O328        O  0.05124694  0.56245970  0.69206648    -0.74200
Ni329      Ni  0.00003727  0.46186782  0.66665860     1.25400
Ni330      Ni  0.00015428  0.53808596  0.66667743     1.25400
C331        C  0.06522891  0.53542250  0.70388853     0.88100
C332        C  0.26828657  0.47036369  0.62945706     0.88000
C333        C  0.06527599  0.52963104  0.62946667     0.88000
C334        C  0.26826791  0.46449460  0.70388008     0.88200
C335        C  0.23362239  0.45978808  0.60655784     0.03400
C336        C  0.23341817  0.43336876  0.58333071    -0.12700
C337        C  0.20700930  0.43316948  0.56010691     0.00900
C338        C  0.18220001  0.46074350  0.56020146    -0.11200
C339        C  0.18073612  0.48608674  0.58333650     0.03400
C340        C  0.20606673  0.48461663  0.60646863    -0.10700
H341        H  0.25343355  0.41333516  0.58332887     0.09000
H342        H  0.16159580  0.46039611  0.54240402     0.06600
H343        H  0.20641469  0.50522636  0.62426874     0.06400
C344        C  0.12657595  0.56683442  0.56011805     0.03400
C345        C  0.15140648  0.53928048  0.56020779    -0.12700
C346        C  0.15287725  0.51395196  0.58334088     0.00900
C347        C  0.12753931  0.51542276  0.60647711    -0.11200
C348        C  0.09996401  0.54023049  0.60657091     0.03400
C349        C  0.10015788  0.56663231  0.58334552    -0.10700
H350        H  0.17201464  0.53962587  0.54240714     0.09000
H351        H  0.12719366  0.49482212  0.62427578     0.06600
H352        H  0.08012088  0.58664487  0.58334651     0.06400
O353        O  0.17673022  0.55797411  0.86318945    -0.74100
O354        O  0.22475587  0.50994532  0.80349019    -0.74100
O355        O  0.17820563  0.56245908  0.80793826    -0.74200
O356        O  0.22923595  0.51141585  0.85874235    -0.74300
O357        O  0.15674958  0.44197970  0.86319678    -0.74200
O358        O  0.10876696  0.48997633  0.80348208    -0.74200
O359        O  0.15531490  0.43746322  0.80794603    -0.74100
O360        O  0.10424503  0.48853657  0.85873371    -0.74200
Ni361      Ni  0.20486645  0.53808275  0.83334016     1.25400
Ni362      Ni  0.12863445  0.46185466  0.83333970     1.25400
C363        C  0.13127468  0.52962986  0.87053912     0.88100
C364        C  0.19640915  0.46449169  0.79613991     0.88000
C365        C  0.13711862  0.53542657  0.79613026     0.88000
C366        C  0.20220056  0.47032783  0.87054878     0.88500
C367        C  0.20701804  0.44041571  0.77325147     0.03400
C368        C  0.23343008  0.46665190  0.75001732    -0.12700
C369        C  0.23361036  0.44041092  0.72679509     0.00900
C370        C  0.20603027  0.38798603  0.72690277    -0.11200
C371        C  0.18071289  0.36116985  0.75004405     0.03400
C372        C  0.18220111  0.38799257  0.77317431    -0.10700
H373        H  0.25345857  0.50673427  0.75000691     0.09000
H374        H  0.20635141  0.36770070  0.70910794     0.06600
H375        H  0.16160216  0.36771409  0.79097868     0.06400
C376        C  0.12652011  0.55949942  0.77324280     0.03400
C377        C  0.15135157  0.61192392  0.77316577    -0.12700
C378        C  0.15282810  0.63874229  0.75004281     0.00900
C379        C  0.12748910  0.61192258  0.72690775    -0.11200
C380        C  0.09989553  0.55949832  0.72679881     0.03400
C381        C  0.10008404  0.53325894  0.75001424    -0.10700
H382        H  0.17196440  0.63220759  0.79096495     0.09000
H383        H  0.12716223  0.63220666  0.70911924     0.06600
H384        H  0.08004263  0.49317744  0.75000335     0.06400
O385        O  0.15674280  0.71459641  0.47014566    -0.74100
O386        O  0.10880542  0.95190385  0.02988796    -0.74100
O387        O  0.15533218  0.71771033  0.02539974    -0.74200
O388        O  0.10424225  0.94879583  0.47463887    -0.74300
O389        O  0.17673332  0.95199713  0.47013097    -0.74200
O390        O  0.22474125  0.71473269  0.02986259    -0.74200
O391        O  0.17820889  0.94892203  0.02538384    -0.74100
O392        O  0.22923685  0.71779714  0.47461123    -0.74200
Ni393      Ni  0.12864438  0.99991277  0.00001995     1.25400
Ni394      Ni  0.20486610  0.66670025  0.49999752     1.25400
C395        C  0.20219611  0.73177628  0.46279023     0.88100
C396        C  0.13714705  0.93482868  0.03721802     0.88000
C397        C  0.19640905  0.73181546  0.03721111     0.88000
C398        C  0.13127358  0.93481583  0.46279681     0.88200
C399        C  0.10719760  0.87357416  0.39342602     0.03400
C400        C  0.05477338  0.84876057  0.39350214    -0.12700
C401        C  0.02794749  0.84726397  0.41663347     0.00900
C402        C  0.05476358  0.87257692  0.43977556    -0.11200
C403        C  0.10718992  0.90015905  0.43988266     0.03400
C404        C  0.13343306  0.89998150  0.41666055    -0.10700
H405        H  0.03449712  0.82816641  0.37569670     0.09000
H406        H  0.03447778  0.87289453  0.45757115     0.06600
H407        H  0.17351624  0.92000836  0.41667133     0.06400
C408        C  0.22627170  0.79305786  0.39343474     0.03400
C409        C  0.20003039  0.76662815  0.41666484    -0.12700
C410        C  0.22627084  0.76644521  0.43988085     0.00900
C411        C  0.27869638  0.79404320  0.43977214    -0.11200
C412        C  0.30551743  0.81937429  0.41663499     0.03400
C413        C  0.27869721  0.81788521  0.39351013    -0.10700
H414        H  0.15994808  0.74658744  0.41667640     0.09000
H415        H  0.29898030  0.79372249  0.45756247     0.06600
H416        H  0.29898008  0.83849125  0.37570840     0.06400
O417        O  0.04805492  0.82330497  0.19653266    -0.74100
O418        O  0.28536036  0.77535632  0.13679074    -0.74100
O419        O  0.05116870  0.82188775  0.14127787    -0.74200
O420        O  0.28225283  0.77079921  0.19204032    -0.74300
O421        O  0.28544448  0.84328459  0.19654259    -0.74200
O422        O  0.04819406  0.89129688  0.13681497    -0.74200
O423        O  0.28238120  0.84476042  0.14128794    -0.74100
O424        O  0.05124699  0.89579305  0.19206645    -0.74200
Ni425      Ni  0.00003731  0.79520120  0.16665859     1.25400
Ni426      Ni  0.00015429  0.87141934  0.16667739     1.25400
C427        C  0.06522894  0.86875584  0.20388852     0.88100
C428        C  0.26828655  0.80369690  0.12945701     0.88000
C429        C  0.06527607  0.86296446  0.12946668     0.88000
C430        C  0.26826794  0.79782797  0.20388008     0.88200
C431        C  0.23362235  0.79312131  0.10655780     0.03400
C432        C  0.23341814  0.76670191  0.08333064    -0.12700
C433        C  0.20700929  0.76650283  0.06010686     0.00900
C434        C  0.18219985  0.79407678  0.06020137    -0.11200
C435        C  0.18073597  0.81941992  0.08333654     0.03400
C436        C  0.20606664  0.81794971  0.10646856    -0.10700
H437        H  0.25343315  0.74666859  0.08332879     0.09000
H438        H  0.16159615  0.79372950  0.04240435     0.06600
H439        H  0.20641465  0.83855984  0.12426903     0.06400
C440        C  0.12657591  0.90016773  0.06011805     0.03400
C441        C  0.15140640  0.87261375  0.06020780    -0.12700
C442        C  0.15287724  0.84728531  0.08334090     0.00900
C443        C  0.12753940  0.84875611  0.10647724    -0.11200
C444        C  0.09996408  0.87356393  0.10657093     0.03400
C445        C  0.10015788  0.89996568  0.08334554    -0.10700
H446        H  0.17201444  0.87295910  0.04240718     0.09000
H447        H  0.12719379  0.82815606  0.12427546     0.06600
H448        H  0.08012096  0.91997821  0.08334653     0.06400
O449        O  0.17673024  0.89130738  0.36318950    -0.74100
O450        O  0.22475594  0.84327874  0.30349020    -0.74100
O451        O  0.17820560  0.89579229  0.30793827    -0.74200
O452        O  0.22923600  0.84474920  0.35874236    -0.74300
O453        O  0.15674961  0.77531306  0.36319673    -0.74200
O454        O  0.10876691  0.82330956  0.30348206    -0.74200
O455        O  0.15531496  0.77079664  0.30794598    -0.74100
O456        O  0.10424501  0.82186990  0.35873368    -0.74200
Ni457      Ni  0.20486649  0.87141608  0.33334019     1.25400
Ni458      Ni  0.12863449  0.79518802  0.33333966     1.25400
C459        C  0.13127467  0.86296314  0.37053913     0.88100
C460        C  0.19640923  0.79782514  0.29613988     0.88000
C461        C  0.13711859  0.86875976  0.29613024     0.88000
C462        C  0.20220059  0.80366113  0.37054874     0.88500
C463        C  0.20701809  0.77374913  0.27325146     0.03400
C464        C  0.23343012  0.79998528  0.25001729    -0.12700
C465        C  0.23361036  0.77374425  0.22679508     0.00900
C466        C  0.20603032  0.72131936  0.22690285    -0.11200
C467        C  0.18071294  0.69450318  0.25004414     0.03400
C468        C  0.18220125  0.72132606  0.27317428    -0.10700
H469        H  0.25345868  0.84006772  0.25000684     0.09000
H470        H  0.20635146  0.70103382  0.20910793     0.06600
H471        H  0.16160186  0.70104715  0.29097907     0.06400
C472        C  0.12652007  0.89283265  0.27324283     0.03400
C473        C  0.15135148  0.94525708  0.27316579    -0.12700
C474        C  0.15282807  0.97207561  0.25004292     0.00900
C475        C  0.12748907  0.94525586  0.22690790    -0.11200
C476        C  0.09989551  0.89283166  0.22679884     0.03400
C477        C  0.10008402  0.86659223  0.25001424    -0.10700
H478        H  0.17196476  0.96554113  0.29096536     0.09000
H479        H  0.12716224  0.96554039  0.20911908     0.06600
H480        H  0.08004257  0.82651060  0.25000330     0.06400
O481        O  0.15674287  0.71459658  0.97014568    -0.74100
O482        O  0.10880537  0.95190376  0.52988792    -0.74100
O483        O  0.15533208  0.71771023  0.52539981    -0.74200
O484        O  0.10424236  0.94879595  0.97463878    -0.74300
O485        O  0.17673338  0.95199712  0.97013096    -0.74200
O486        O  0.22474125  0.71473281  0.52986257    -0.74200
O487        O  0.17820893  0.94892208  0.52538386    -0.74100
O488        O  0.22923691  0.71779726  0.97461130    -0.74200
Ni489      Ni  0.12864425  0.99991269  0.50001997     1.25400
Ni490      Ni  0.20486617  0.66670022  0.99999754     1.25400
C491        C  0.20219621  0.73177644  0.96279030     0.88100
C492        C  0.13714702  0.93482867  0.53721800     0.88000
C493        C  0.19640899  0.73181546  0.53721116     0.88000
C494        C  0.13127369  0.93481590  0.96279675     0.88200
C495        C  0.10719756  0.87357415  0.89342601     0.03400
C496        C  0.05477344  0.84876080  0.89350217    -0.12700
C497        C  0.02794747  0.84726400  0.91663346     0.00900
C498        C  0.05476366  0.87257687  0.93977554    -0.11200
C499        C  0.10718993  0.90015897  0.93988266     0.03400
C500        C  0.13343324  0.89998148  0.91666055    -0.10700
H501        H  0.03449675  0.82816629  0.87569633     0.09000
H502        H  0.03447761  0.87289448  0.95757136     0.06600
H503        H  0.17351539  0.92000780  0.91667132     0.06400
C504        C  0.22627171  0.79305786  0.89343477     0.03400
C505        C  0.20003057  0.76662829  0.91666488    -0.12700
C506        C  0.22627092  0.76644528  0.93988089     0.00900
C507        C  0.27869645  0.79404325  0.93977217    -0.11200
C508        C  0.30551749  0.81937423  0.91663502     0.03400
C509        C  0.27869729  0.81788517  0.89351011    -0.10700
H510        H  0.15994759  0.74658733  0.91667647     0.09000
H511        H  0.29898043  0.79372263  0.95756260     0.06600
H512        H  0.29897996  0.83849103  0.87570856     0.06400
O513        O  0.04805482  0.82330495  0.69653271    -0.74100
O514        O  0.28536019  0.77535636  0.63679080    -0.74100
O515        O  0.05116877  0.82188768  0.64127790    -0.74200
O516        O  0.28225280  0.77079917  0.69204032    -0.74300
O517        O  0.28544444  0.84328453  0.69654260    -0.74200
O518        O  0.04819407  0.89129677  0.63681499    -0.74200
O519        O  0.28238123  0.84476056  0.64128797    -0.74100
O520        O  0.05124701  0.89579308  0.69206645    -0.74200
Ni521      Ni  0.00003731  0.79520115  0.66665860     1.25400
Ni522      Ni  0.00015433  0.87141929  0.66667743     1.25400
C523        C  0.06522886  0.86875584  0.70388855     0.88100
C524        C  0.26828649  0.80369705  0.62945706     0.88000
C525        C  0.06527604  0.86296437  0.62946666     0.88000
C526        C  0.26826796  0.79782795  0.70388011     0.88200
C527        C  0.23362230  0.79312141  0.60655784     0.03400
C528        C  0.23341801  0.76670218  0.58333071    -0.12700
C529        C  0.20700928  0.76650285  0.56010691     0.00900
C530        C  0.18219988  0.79407683  0.56020140    -0.11200
C531        C  0.18073605  0.81942005  0.58333650     0.03400
C532        C  0.20606661  0.81794993  0.60646863    -0.10700
H533        H  0.25343388  0.74666812  0.58332889     0.09000
H534        H  0.16159603  0.79372946  0.54240425     0.06600
H535        H  0.20641461  0.83855972  0.62426874     0.06400
C536        C  0.12657588  0.90016772  0.56011804     0.03400
C537        C  0.15140636  0.87261379  0.56020779    -0.12700
C538        C  0.15287726  0.84728534  0.58334086     0.00900
C539        C  0.12753937  0.84875613  0.60647713    -0.11200
C540        C  0.09996405  0.87356383  0.60657091     0.03400
C541        C  0.10015772  0.89996572  0.58334554    -0.10700
H542        H  0.17201451  0.87295912  0.54240707     0.09000
H543        H  0.12719374  0.82815558  0.62427567     0.06600
H544        H  0.08012126  0.91997769  0.58334655     0.06400
O545        O  0.17673022  0.89130746  0.86318943    -0.74100
O546        O  0.22475595  0.84327863  0.80349020    -0.74100
O547        O  0.17820568  0.89579240  0.80793823    -0.74200
O548        O  0.22923599  0.84474915  0.85874235    -0.74300
O549        O  0.15674952  0.77531309  0.86319681    -0.74200
O550        O  0.10876697  0.82330965  0.80348208    -0.74200
O551        O  0.15531491  0.77079656  0.80794604    -0.74100
O552        O  0.10424501  0.82186989  0.85873373    -0.74200
Ni553      Ni  0.20486652  0.87141609  0.83334015     1.25400
Ni554      Ni  0.12863443  0.79518800  0.83333970     1.25400
C555        C  0.13127469  0.86296320  0.87053912     0.88100
C556        C  0.19640914  0.79782502  0.79613990     0.88000
C557        C  0.13711861  0.86875989  0.79613026     0.88000
C558        C  0.20220057  0.80366117  0.87054879     0.88500
C559        C  0.20701796  0.77374904  0.77325144     0.03400
C560        C  0.23343000  0.79998523  0.75001731    -0.12700
C561        C  0.23361040  0.77374426  0.72679510     0.00900
C562        C  0.20603022  0.72131937  0.72690276    -0.11200
C563        C  0.18071293  0.69450319  0.75004406     0.03400
C564        C  0.18220121  0.72132592  0.77317432    -0.10700
H565        H  0.25345848  0.84006763  0.75000690     0.09000
H566        H  0.20635124  0.70103403  0.70910785     0.06600
H567        H  0.16160235  0.70104746  0.79097872     0.06400
C568        C  0.12651994  0.89283268  0.77324282     0.03400
C569        C  0.15135142  0.94525719  0.77316580    -0.12700
C570        C  0.15282815  0.97207559  0.75004281     0.00900
C571        C  0.12748918  0.94525590  0.72690774    -0.11200
C572        C  0.09989542  0.89283163  0.72679883     0.03400
C573        C  0.10008389  0.86659225  0.75001426    -0.10700
H574        H  0.17196414  0.96554079  0.79096498     0.09000
H575        H  0.12716241  0.96553997  0.70911921     0.06600
H576        H  0.08004240  0.82651055  0.75000332     0.06400
O577        O  0.49007612  0.04792974  0.47014565    -0.74100
O578        O  0.44213868  0.28523719  0.02988798    -0.74100
O579        O  0.48866547  0.05104364  0.02539976    -0.74200
O580        O  0.43757575  0.28212922  0.47463888    -0.74300
O581        O  0.51006678  0.28533048  0.47013095    -0.74200
O582        O  0.55807453  0.04806600  0.02986258    -0.74200
O583        O  0.51154216  0.28225536  0.02538384    -0.74100
O584        O  0.56257014  0.05113046  0.47461123    -0.74200
Ni585      Ni  0.46197764  0.33324609  0.00001997     1.25400
Ni586      Ni  0.53819940  0.00003357  0.49999752     1.25400
C587        C  0.53552944  0.06510962  0.46279023     0.88100
C588        C  0.47048032  0.26816200  0.03721801     0.88000
C589        C  0.52974237  0.06514879  0.03721112     0.88000
C590        C  0.46460703  0.26814923  0.46279678     0.88200
C591        C  0.44053088  0.20690749  0.39342601     0.03400
C592        C  0.38810664  0.18209390  0.39350213    -0.12700
C593        C  0.36128078  0.18059732  0.41663347     0.00900
C594        C  0.38809688  0.20591030  0.43977557    -0.11200
C595        C  0.44052325  0.23349243  0.43988265     0.03400
C596        C  0.46676632  0.23331483  0.41666053    -0.10700
H597        H  0.36783039  0.16149973  0.37569669     0.09000
H598        H  0.36781112  0.20622795  0.45757115     0.06600
H599        H  0.50684952  0.25334170  0.41667131     0.06400
C600        C  0.55960508  0.12639116  0.39343472     0.03400
C601        C  0.53336379  0.09996142  0.41666481    -0.12700
C602        C  0.55960420  0.09977856  0.43988086     0.00900
C603        C  0.61202974  0.12737656  0.43977216    -0.11200
C604        C  0.63885081  0.15270761  0.41663499     0.03400
C605        C  0.61203059  0.15121854  0.39351015    -0.10700
H606        H  0.49328139  0.07992062  0.41667636     0.09000
H607        H  0.63231366  0.12705591  0.45756251     0.06600
H608        H  0.63231354  0.17182471  0.37570838     0.06400
O609        O  0.38138825  0.15663828  0.19653269    -0.74100
O610        O  0.61869363  0.10868965  0.13679074    -0.74100
O611        O  0.38450219  0.15522110  0.14127790    -0.74200
O612        O  0.61558610  0.10413252  0.19204032    -0.74300
O613        O  0.61877777  0.17661792  0.19654259    -0.74200
O614        O  0.38152742  0.22463018  0.13681498    -0.74200
O615        O  0.61571446  0.17809375  0.14128795    -0.74100
O616        O  0.38458040  0.22912639  0.19206641    -0.74200
Ni617      Ni  0.33337074  0.12853453  0.16665859     1.25400
Ni618      Ni  0.33348766  0.20475268  0.16667739     1.25400
C619        C  0.39856227  0.20208917  0.20388852     0.88100
C620        C  0.60161981  0.13703024  0.12945703     0.88000
C621        C  0.39860945  0.19629778  0.12946668     0.88000
C622        C  0.60160126  0.13116130  0.20388010     0.88200
C623        C  0.56695561  0.12645460  0.10655782     0.03400
C624        C  0.56675145  0.10003525  0.08333068    -0.12700
C625        C  0.54034269  0.09983621  0.06010686     0.00900
C626        C  0.51553335  0.12741020  0.06020144    -0.11200
C627        C  0.51406928  0.15275322  0.08333655     0.03400
C628        C  0.53939985  0.15128306  0.10646870    -0.10700
H629        H  0.58676649  0.08000185  0.08332885     0.09000
H630        H  0.49492939  0.12706293  0.04240411     0.06600
H631        H  0.53974780  0.17189262  0.12426871     0.06400
C632        C  0.45990920  0.23350106  0.06011805     0.03400
C633        C  0.48473985  0.20594713  0.06020775    -0.12700
C634        C  0.48621054  0.18061862  0.08334091     0.00900
C635        C  0.46087269  0.18208943  0.10647722    -0.11200
C636        C  0.43329738  0.20689724  0.10657091     0.03400
C637        C  0.43349115  0.23329898  0.08334552    -0.10700
H638        H  0.50534757  0.20629252  0.04240750     0.09000
H639        H  0.46052708  0.16148940  0.12427544     0.06600
H640        H  0.41345421  0.25331150  0.08334652     0.06400
O641        O  0.51006360  0.22464073  0.36318950    -0.74100
O642        O  0.55808925  0.17661204  0.30349019    -0.74100
O643        O  0.51153895  0.22912565  0.30793829    -0.74200
O644        O  0.56256943  0.17808249  0.35874234    -0.74300
O645        O  0.49008295  0.10864644  0.36319675    -0.74200
O646        O  0.44210029  0.15664288  0.30348204    -0.74200
O647        O  0.48864822  0.10412995  0.30794598    -0.74100
O648        O  0.43757838  0.15520322  0.35873370    -0.74200
Ni649      Ni  0.53819990  0.20474943  0.33334019     1.25400
Ni650      Ni  0.46196782  0.12852135  0.33333967     1.25400
C651        C  0.46460801  0.19629648  0.37053913     0.88100
C652        C  0.52974249  0.13115845  0.29613987     0.88000
C653        C  0.47045192  0.20209310  0.29613025     0.88000
C654        C  0.53553396  0.13699445  0.37054875     0.88500
C655        C  0.54035138  0.10708246  0.27325146     0.03400
C656        C  0.56676336  0.13331861  0.25001728    -0.12700
C657        C  0.56694365  0.10707758  0.22679509     0.00900
C658        C  0.53936356  0.05465269  0.22690284    -0.11200
C659        C  0.51404621  0.02783651  0.25004415     0.03400
C660        C  0.51553471  0.05465942  0.27317431    -0.10700
H661        H  0.58679192  0.17340108  0.25000682     0.09000
H662        H  0.53968467  0.03436717  0.20910793     0.06600
H663        H  0.49493542  0.03438050  0.29097917     0.06400
C664        C  0.45985332  0.22616597  0.27324284     0.03400
C665        C  0.48468472  0.27859040  0.27316579    -0.12700
C666        C  0.48616134  0.30540894  0.25004292     0.00900
C667        C  0.46082232  0.27858919  0.22690791    -0.11200
C668        C  0.43322877  0.22616499  0.22679885     0.03400
C669        C  0.43341729  0.19992555  0.25001425    -0.10700
H670        H  0.50529802  0.29887445  0.29096536     0.09000
H671        H  0.46049552  0.29887372  0.20911909     0.06600
H672        H  0.41337590  0.15984392  0.25000328     0.06400
O673        O  0.49007622  0.04792993  0.97014568    -0.74100
O674        O  0.44213869  0.28523709  0.52988792    -0.74100
O675        O  0.48866544  0.05104357  0.52539980    -0.74200
O676        O  0.43757565  0.28212920  0.97463887    -0.74300
O677        O  0.51006670  0.28533047  0.97013096    -0.74200
O678        O  0.55807458  0.04806613  0.52986257    -0.74200
O679        O  0.51154223  0.28225541  0.52538385    -0.74100
O680        O  0.56257025  0.05113060  0.97461130    -0.74200
Ni681      Ni  0.46197769  0.33324603  0.50001997     1.25400
Ni682      Ni  0.53819944  0.00003356  0.99999754     1.25400
C683        C  0.53552957  0.06510979  0.96279030     0.88100
C684        C  0.47048032  0.26816200  0.53721801     0.88000
C685        C  0.52974234  0.06514878  0.53721116     0.88000
C686        C  0.46460698  0.26814921  0.96279679     0.88200
C687        C  0.44053092  0.20690749  0.89342603     0.03400
C688        C  0.38810673  0.18209410  0.89350214    -0.12700
C689        C  0.36128079  0.18059737  0.91663347     0.00900
C690        C  0.38809695  0.20591023  0.93977554    -0.11200
C691        C  0.44052324  0.23349234  0.93988268     0.03400
C692        C  0.46676638  0.23331472  0.91666057    -0.10700
H693        H  0.36783024  0.16149979  0.87569648     0.09000
H694        H  0.36781087  0.20622785  0.95757138     0.06600
H695        H  0.50684955  0.25334155  0.91667136     0.06400
C696        C  0.55960504  0.12639121  0.89343478     0.03400
C697        C  0.53336390  0.09996166  0.91666490    -0.12700
C698        C  0.55960425  0.09977862  0.93988089     0.00900
C699        C  0.61202984  0.12737655  0.93977221    -0.11200
C700        C  0.63885080  0.15270756  0.91663501     0.03400
C701        C  0.61203062  0.15121853  0.89351012    -0.10700
H702        H  0.49328087  0.07992068  0.91667648     0.09000
H703        H  0.63231345  0.12705591  0.95756230     0.06600
H704        H  0.63231326  0.17182434  0.87570859     0.06400
O705        O  0.38138824  0.15663830  0.69653268    -0.74100
O706        O  0.61869361  0.10868961  0.63679076    -0.74100
O707        O  0.38450205  0.15522101  0.64127789    -0.74200
O708        O  0.61558605  0.10413247  0.69204028    -0.74300
O709        O  0.61877786  0.17661789  0.69654263    -0.74200
O710        O  0.38152738  0.22463012  0.63681500    -0.74200
O711        O  0.61571455  0.17809374  0.64128799    -0.74100
O712        O  0.38458024  0.22912635  0.69206647    -0.74200
Ni713      Ni  0.33337064  0.12853450  0.66665861     1.25400
Ni714      Ni  0.33348761  0.20475264  0.66667743     1.25400
C715        C  0.39856217  0.20208915  0.70388856     0.88100
C716        C  0.60161986  0.13703026  0.62945706     0.88000
C717        C  0.39860936  0.19629771  0.62946667     0.88000
C718        C  0.60160128  0.13116127  0.70388009     0.88200
C719        C  0.56695567  0.12645469  0.60655784     0.03400
C720        C  0.56675150  0.10003543  0.58333069    -0.12700
C721        C  0.54034261  0.09983617  0.56010691     0.00900
C722        C  0.51553320  0.12741013  0.56020142    -0.11200
C723        C  0.51406946  0.15275344  0.58333651     0.03400
C724        C  0.53940007  0.15128330  0.60646862    -0.10700
H725        H  0.58676684  0.08000192  0.58332885     0.09000
H726        H  0.49492929  0.12706270  0.54240431     0.06600
H727        H  0.53974807  0.17189309  0.62426873     0.06400
C728        C  0.45990923  0.23350107  0.56011805     0.03400
C729        C  0.48473963  0.20594713  0.56020785    -0.12700
C730        C  0.48621059  0.18061866  0.58334086     0.00900
C731        C  0.46087267  0.18208947  0.60647711    -0.11200
C732        C  0.43329736  0.20689715  0.60657091     0.03400
C733        C  0.43349100  0.23329905  0.58334553    -0.10700
H734        H  0.50534817  0.20629248  0.54240681     0.09000
H735        H  0.46052708  0.16148883  0.62427579     0.06600
H736        H  0.41345459  0.25331094  0.58334653     0.06400
O737        O  0.51006359  0.22464076  0.86318946    -0.74100
O738        O  0.55808926  0.17661197  0.80349020    -0.74100
O739        O  0.51153898  0.22912572  0.80793824    -0.74200
O740        O  0.56256933  0.17808251  0.85874235    -0.74300
O741        O  0.49008291  0.10864638  0.86319678    -0.74200
O742        O  0.44210026  0.15664298  0.80348208    -0.74200
O743        O  0.48864823  0.10412989  0.80794602    -0.74100
O744        O  0.43757834  0.15520325  0.85873372    -0.74200
Ni745      Ni  0.53819983  0.20474940  0.83334015     1.25400
Ni746      Ni  0.46196773  0.12852131  0.83333970     1.25400
C747        C  0.46460802  0.19629652  0.87053913     0.88100
C748        C  0.52974252  0.13115835  0.79613992     0.88000
C749        C  0.47045195  0.20209321  0.79613025     0.88000
C750        C  0.53553394  0.13699450  0.87054878     0.88500
C751        C  0.54035143  0.10708237  0.77325148     0.03400
C752        C  0.56676347  0.13331856  0.75001733    -0.12700
C753        C  0.56694375  0.10707758  0.72679510     0.00900
C754        C  0.53936366  0.05465268  0.72690278    -0.11200
C755        C  0.51404626  0.02783651  0.75004406     0.03400
C756        C  0.51553450  0.05465923  0.77317431    -0.10700
H757        H  0.58679196  0.17340093  0.75000691     0.09000
H758        H  0.53968477  0.03436735  0.70910794     0.06600
H759        H  0.49493555  0.03438076  0.79097869     0.06400
C760        C  0.45985334  0.22616602  0.77324281     0.03400
C761        C  0.48468489  0.27859055  0.77316578    -0.12700
C762        C  0.48616142  0.30540892  0.75004280     0.00900
C763        C  0.46082241  0.27858922  0.72690775    -0.11200
C764        C  0.43322873  0.22616496  0.72679884     0.03400
C765        C  0.43341733  0.19992559  0.75001424    -0.10700
H766        H  0.50529766  0.29887411  0.79096488     0.09000
H767        H  0.46049558  0.29887331  0.70911923     0.06600
H768        H  0.41337590  0.15984388  0.75000330     0.06400
O769        O  0.49007618  0.38126307  0.47014566    -0.74100
O770        O  0.44213872  0.61857052  0.02988798    -0.74100
O771        O  0.48866540  0.38437699  0.02539975    -0.74200
O772        O  0.43757565  0.61546254  0.47463886    -0.74300
O773        O  0.51006670  0.61866384  0.47013097    -0.74200
O774        O  0.55807446  0.38139934  0.02986259    -0.74200
O775        O  0.51154219  0.61558870  0.02538384    -0.74100
O776        O  0.56257024  0.38446381  0.47461123    -0.74200
Ni777      Ni  0.46197760  0.66657943  0.00001997     1.25400
Ni778      Ni  0.53819947  0.33336691  0.49999753     1.25400
C779        C  0.53552948  0.39844294  0.46279023     0.88100
C780        C  0.47048033  0.60149535  0.03721802     0.88000
C781        C  0.52974228  0.39848213  0.03721111     0.88000
C782        C  0.46460700  0.60148257  0.46279678     0.88200
C783        C  0.44053089  0.54024080  0.39342603     0.03400
C784        C  0.38810664  0.51542727  0.39350211    -0.12700
C785        C  0.36128082  0.51393071  0.41663348     0.00900
C786        C  0.38809701  0.53924362  0.43977552    -0.11200
C787        C  0.44052329  0.56682574  0.43988266     0.03400
C788        C  0.46676640  0.56664813  0.41666054    -0.10700
H789        H  0.36783051  0.49483325  0.37569682     0.09000
H790        H  0.36781090  0.53956124  0.45757142     0.06600
H791        H  0.50684956  0.58667496  0.41667130     0.06400
C792        C  0.55960503  0.45972449  0.39343472     0.03400
C793        C  0.53336372  0.43329478  0.41666482    -0.12700
C794        C  0.55960419  0.43311188  0.43988085     0.00900
C795        C  0.61202970  0.46070995  0.43977215    -0.11200
C796        C  0.63885079  0.48604096  0.41663500     0.03400
C797        C  0.61203059  0.48455189  0.39351010    -0.10700
H798        H  0.49328143  0.41325406  0.41667638     0.09000
H799        H  0.63231367  0.46038933  0.45756256     0.06600
H800        H  0.63231335  0.50515780  0.37570851     0.06400
O801        O  0.38138812  0.48997163  0.19653269    -0.74100
O802        O  0.61869354  0.44202294  0.13679076    -0.74100
O803        O  0.38450205  0.48855442  0.14127788    -0.74200
O804        O  0.61558612  0.43746585  0.19204032    -0.74300
O805        O  0.61877788  0.50995126  0.19654260    -0.74200
O806        O  0.38152738  0.55796352  0.13681496    -0.74200
O807        O  0.61571456  0.51142713  0.14128793    -0.74100
O808        O  0.38458033  0.56245976  0.19206642    -0.74200
Ni809      Ni  0.33337063  0.46186786  0.16665859     1.25400
Ni810      Ni  0.33348762  0.53808601  0.16667739     1.25400
C811        C  0.39856215  0.53542250  0.20388855     0.88100
C812        C  0.60161982  0.47036359  0.12945702     0.88000
C813        C  0.39860938  0.52963112  0.12946666     0.88000
C814        C  0.60160131  0.46449464  0.20388009     0.88200
C815        C  0.56695559  0.45978793  0.10655783     0.03400
C816        C  0.56675128  0.43336862  0.08333067    -0.12700
C817        C  0.54034259  0.43316951  0.06010687     0.00900
C818        C  0.51553322  0.46074353  0.06020140    -0.11200
C819        C  0.51406933  0.48608662  0.08333656     0.03400
C820        C  0.53939991  0.48461645  0.10646869    -0.10700
H821        H  0.58676672  0.41333484  0.08332882     0.09000
H822        H  0.49492952  0.46039626  0.04240433     0.06600
H823        H  0.53974793  0.50522609  0.12426873     0.06400
C824        C  0.45990923  0.56683438  0.06011806     0.03400
C825        C  0.48473979  0.53928044  0.06020776    -0.12700
C826        C  0.48621060  0.51395201  0.08334092     0.00900
C827        C  0.46087275  0.51542282  0.10647724    -0.11200
C828        C  0.43329740  0.54023057  0.10657092     0.03400
C829        C  0.43349103  0.56663240  0.08334553    -0.10700
H830        H  0.50534755  0.53962576  0.04240738     0.09000
H831        H  0.46052715  0.49482275  0.12427548     0.06600
H832        H  0.41345468  0.58664425  0.08334652     0.06400
O833        O  0.51006350  0.55797406  0.36318948    -0.74100
O834        O  0.55808933  0.50994539  0.30349021    -0.74100
O835        O  0.51153898  0.56245896  0.30793824    -0.74200
O836        O  0.56256932  0.51141583  0.35874235    -0.74300
O837        O  0.49008284  0.44197977  0.36319676    -0.74200
O838        O  0.44210023  0.48997625  0.30348205    -0.74200
O839        O  0.48864829  0.43746332  0.30794598    -0.74100
O840        O  0.43757826  0.48853655  0.35873369    -0.74200
Ni841      Ni  0.53819983  0.53808275  0.33334018     1.25400
Ni842      Ni  0.46196774  0.46185469  0.33333966     1.25400
C843        C  0.46460794  0.52962979  0.37053913     0.88100
C844        C  0.52974259  0.46449180  0.29613989     0.88000
C845        C  0.47045192  0.53542644  0.29613023     0.88000
C846        C  0.53553388  0.47032778  0.37054874     0.88500
C847        C  0.54035148  0.44041580  0.27325147     0.03400
C848        C  0.56676351  0.46665194  0.25001729    -0.12700
C849        C  0.56694375  0.44041091  0.22679509     0.00900
C850        C  0.53936370  0.38798601  0.22690286    -0.11200
C851        C  0.51404628  0.36116984  0.25004415     0.03400
C852        C  0.51553464  0.38799274  0.27317428    -0.10700
H853        H  0.58679207  0.50673438  0.25000684     0.09000
H854        H  0.53968481  0.36770046  0.20910793     0.06600
H855        H  0.49493524  0.36771384  0.29097907     0.06400
C856        C  0.45985328  0.55949931  0.27324285     0.03400
C857        C  0.48468461  0.61192372  0.27316582    -0.12700
C858        C  0.48616139  0.63874227  0.25004291     0.00900
C859        C  0.46082240  0.61192251  0.22690789    -0.11200
C860        C  0.43322871  0.55949832  0.22679886     0.03400
C861        C  0.43341731  0.53325889  0.25001424    -0.10700
H862        H  0.50529781  0.63220775  0.29096542     0.09000
H863        H  0.46049562  0.63220704  0.20911903     0.06600
H864        H  0.41337598  0.49317724  0.25000326     0.06400
O865        O  0.49007618  0.38126325  0.97014567    -0.74100
O866        O  0.44213875  0.61857042  0.52988791    -0.74100
O867        O  0.48866542  0.38437689  0.52539981    -0.74200
O868        O  0.43757566  0.61546254  0.97463887    -0.74300
O869        O  0.51006671  0.61866380  0.97013096    -0.74200
O870        O  0.55807459  0.38139947  0.52986257    -0.74200
O871        O  0.51154239  0.61558890  0.52538390    -0.74100
O872        O  0.56257022  0.38446393  0.97461131    -0.74200
Ni873      Ni  0.46197762  0.66657936  0.50001997     1.25400
Ni874      Ni  0.53819945  0.33336689  0.99999754     1.25400
C875        C  0.53552954  0.39844311  0.96279030     0.88100
C876        C  0.47048046  0.60149540  0.53721801     0.88000
C877        C  0.52974233  0.39848211  0.53721116     0.88000
C878        C  0.46460699  0.60148255  0.96279679     0.88200
C879        C  0.44053088  0.54024081  0.89342602     0.03400
C880        C  0.38810674  0.51542743  0.89350217    -0.12700
C881        C  0.36128075  0.51393066  0.91663346     0.00900
C882        C  0.38809686  0.53924360  0.93977558    -0.11200
C883        C  0.44052320  0.56682569  0.93988267     0.03400
C884        C  0.46676653  0.56664813  0.91666058    -0.10700
H885        H  0.36783011  0.49483297  0.87569636     0.09000
H886        H  0.36781109  0.53956124  0.95757109     0.06600
H887        H  0.50684861  0.58667438  0.91667137     0.06400
C888        C  0.55960509  0.45972452  0.89343477     0.03400
C889        C  0.53336396  0.43329496  0.91666488    -0.12700
C890        C  0.55960428  0.43311193  0.93988089     0.00900
C891        C  0.61202982  0.46070990  0.93977217    -0.11200
C892        C  0.63885085  0.48604091  0.91663501     0.03400
C893        C  0.61203066  0.48455183  0.89351011    -0.10700
H894        H  0.49328097  0.41325399  0.91667646     0.09000
H895        H  0.63231380  0.46038928  0.95756260     0.06600
H896        H  0.63231334  0.50515769  0.87570856     0.06400
O897        O  0.38138814  0.48997150  0.69653273    -0.74100
O898        O  0.61869354  0.44202295  0.63679078    -0.74100
O899        O  0.38450214  0.48855436  0.64127792    -0.74200
O900        O  0.61558614  0.43746582  0.69204033    -0.74300
O901        O  0.61877783  0.50995120  0.69654261    -0.74200
O902        O  0.38152737  0.55796343  0.63681500    -0.74200
O903        O  0.61571449  0.51142709  0.64128800    -0.74100
O904        O  0.38458029  0.56245962  0.69206645    -0.74200
Ni905      Ni  0.33337066  0.46186780  0.66665861     1.25400
Ni906      Ni  0.33348762  0.53808599  0.66667743     1.25400
C907        C  0.39856219  0.53542241  0.70388854     0.88100
C908        C  0.60161978  0.47036361  0.62945707     0.88000
C909        C  0.39860937  0.52963102  0.62946667     0.88000
C910        C  0.60160130  0.46449460  0.70388010     0.88200
C911        C  0.56695563  0.45978804  0.60655784     0.03400
C912        C  0.56675143  0.43336877  0.58333071    -0.12700
C913        C  0.54034263  0.43316952  0.56010690     0.00900
C914        C  0.51553329  0.46074350  0.56020144    -0.11200
C915        C  0.51406939  0.48608672  0.58333649     0.03400
C916        C  0.53939998  0.48461662  0.60646863    -0.10700
H917        H  0.58676688  0.41333505  0.58332889     0.09000
H918        H  0.49492913  0.46039609  0.54240407     0.06600
H919        H  0.53974796  0.50522635  0.62426871     0.06400
C920        C  0.45990926  0.56683444  0.56011804     0.03400
C921        C  0.48473973  0.53928046  0.56020778    -0.12700
C922        C  0.48621054  0.51395196  0.58334086     0.00900
C923        C  0.46087268  0.51542278  0.60647713    -0.11200
C924        C  0.43329733  0.54023049  0.60657089     0.03400
C925        C  0.43349114  0.56663229  0.58334552    -0.10700
H926        H  0.50534788  0.53962584  0.54240712     0.09000
H927        H  0.46052709  0.49482236  0.62427565     0.06600
H928        H  0.41345414  0.58664483  0.58334651     0.06400
O929        O  0.51006357  0.55797412  0.86318944    -0.74100
O930        O  0.55808933  0.50994531  0.80349020    -0.74100
O931        O  0.51153898  0.56245910  0.80793827    -0.74200
O932        O  0.56256939  0.51141582  0.85874234    -0.74300
O933        O  0.49008292  0.44197976  0.86319681    -0.74200
O934        O  0.44210034  0.48997631  0.80348206    -0.74200
O935        O  0.48864831  0.43746323  0.80794605    -0.74100
O936        O  0.43757837  0.48853656  0.85873372    -0.74200
Ni937      Ni  0.53819988  0.53808276  0.83334016     1.25400
Ni938      Ni  0.46196781  0.46185466  0.83333970     1.25400
C939        C  0.46460802  0.52962988  0.87053911     0.88100
C940        C  0.52974254  0.46449169  0.79613991     0.88000
C941        C  0.47045195  0.53542658  0.79613026     0.88000
C942        C  0.53553396  0.47032784  0.87054879     0.88500
C943        C  0.54035135  0.44041571  0.77325145     0.03400
C944        C  0.56676332  0.46665189  0.75001729    -0.12700
C945        C  0.56694367  0.44041092  0.72679508     0.00900
C946        C  0.53936351  0.38798603  0.72690275    -0.11200
C947        C  0.51404617  0.36116984  0.75004405     0.03400
C948        C  0.51553456  0.38799258  0.77317433    -0.10700
H949        H  0.58679181  0.50673430  0.75000689     0.09000
H950        H  0.53968464  0.36770072  0.70910792     0.06600
H951        H  0.49493574  0.36771410  0.79097878     0.06400
C952        C  0.45985335  0.55949941  0.77324282     0.03400
C953        C  0.48468479  0.61192392  0.77316577    -0.12700
C954        C  0.48616132  0.63874228  0.75004281     0.00900
C955        C  0.46082233  0.61192259  0.72690772    -0.11200
C956        C  0.43322876  0.55949828  0.72679882     0.03400
C957        C  0.43341729  0.53325893  0.75001425    -0.10700
H958        H  0.50529764  0.63220759  0.79096496     0.09000
H959        H  0.46049553  0.63220648  0.70911934     0.06600
H960        H  0.41337594  0.49317741  0.75000334     0.06400
O961        O  0.49007608  0.71459643  0.47014565    -0.74100
O962        O  0.44213883  0.95190385  0.02988795    -0.74100
O963        O  0.48866544  0.71771033  0.02539976    -0.74200
O964        O  0.43757571  0.94879584  0.47463888    -0.74300
O965        O  0.51006672  0.95199711  0.47013095    -0.74200
O966        O  0.55807450  0.71473266  0.02986258    -0.74200
O967        O  0.51154230  0.94892203  0.02538385    -0.74100
O968        O  0.56257011  0.71779713  0.47461122    -0.74200
Ni969      Ni  0.46197767  0.99991277  0.00001995     1.25400
Ni970      Ni  0.53819943  0.66670030  0.49999753     1.25400
C971        C  0.53552941  0.73177629  0.46279023     0.88100
C972        C  0.47048045  0.93482868  0.03721801     0.88000
C973        C  0.52974234  0.73181545  0.03721111     0.88000
C974        C  0.46460697  0.93481581  0.46279680     0.88200
C975        C  0.44053086  0.87357416  0.39342601     0.03400
C976        C  0.38810663  0.84876057  0.39350213    -0.12700
C977        C  0.36128076  0.84726399  0.41663346     0.00900
C978        C  0.38809684  0.87257695  0.43977556    -0.11200
C979        C  0.44052321  0.90015905  0.43988266     0.03400
C980        C  0.46676629  0.89998149  0.41666053    -0.10700
H981        H  0.36783037  0.82816639  0.37569669     0.09000
H982        H  0.36781108  0.87289459  0.45757114     0.06600
H983        H  0.50684952  0.92000836  0.41667131     0.06400
C984        C  0.55960511  0.79305782  0.39343472     0.03400
C985        C  0.53336382  0.76662812  0.41666480    -0.12700
C986        C  0.55960420  0.76644523  0.43988085     0.00900
C987        C  0.61202975  0.79404324  0.43977217    -0.11200
C988        C  0.63885083  0.81937427  0.41663500     0.03400
C989        C  0.61203066  0.81788519  0.39351010    -0.10700
H990        H  0.49328138  0.74658732  0.41667635     0.09000
H991        H  0.63231363  0.79372260  0.45756251     0.06600
H992        H  0.63231344  0.83849115  0.37570851     0.06400
O993        O  0.38138823  0.82330495  0.19653269    -0.74100
O994        O  0.61869360  0.77535632  0.13679075    -0.74100
O995        O  0.38450218  0.82188776  0.14127790    -0.74200
O996        O  0.61558622  0.77079920  0.19204036    -0.74300
O997        O  0.61877784  0.84328457  0.19654257    -0.74200
O998        O  0.38152742  0.89129684  0.13681498    -0.74200
O999        O  0.61571452  0.84476044  0.14128795    -0.74100
O1000       O  0.38458038  0.89579307  0.19206641    -0.74200
Ni1001     Ni  0.33337073  0.79520120  0.16665859     1.25400
Ni1002     Ni  0.33348764  0.87141935  0.16667739     1.25400
C1003       C  0.39856226  0.86875584  0.20388852     0.88100
C1004       C  0.60161981  0.80369691  0.12945703     0.88000
C1005       C  0.39860946  0.86296444  0.12946668     0.88000
C1006       C  0.60160132  0.79782797  0.20388010     0.88200
C1007       C  0.56695561  0.79312130  0.10655781     0.03400
C1008       C  0.56675143  0.76670191  0.08333066    -0.12700
C1009       C  0.54034267  0.76650287  0.06010685     0.00900
C1010       C  0.51553333  0.79407684  0.06020140    -0.11200
C1011       C  0.51406928  0.81941990  0.08333653     0.03400
C1012       C  0.53939990  0.81794969  0.10646857    -0.10700
H1013       H  0.58676648  0.74666848  0.08332885     0.09000
H1014       H  0.49492936  0.79372957  0.04240409     0.06600
H1015       H  0.53974790  0.83855984  0.12426903     0.06400
C1016       C  0.45990924  0.90016772  0.06011805     0.03400
C1017       C  0.48473984  0.87261377  0.06020775    -0.12700
C1018       C  0.48621056  0.84728529  0.08334089     0.00900
C1019       C  0.46087278  0.84875612  0.10647726    -0.11200
C1020       C  0.43329742  0.87356392  0.10657091     0.03400
C1021       C  0.43349117  0.89996563  0.08334552    -0.10700
H1022       H  0.50534753  0.87295914  0.04240748     0.09000
H1023       H  0.46052721  0.82815629  0.12427532     0.06600
H1024       H  0.41345421  0.91997814  0.08334651     0.06400
O1025       O  0.51006359  0.89130740  0.36318951    -0.74100
O1026       O  0.55808927  0.84327875  0.30349017    -0.74100
O1027       O  0.51153893  0.89579232  0.30793829    -0.74200
O1028       O  0.56256944  0.84474917  0.35874234    -0.74300
O1029       O  0.49008295  0.77531312  0.36319676    -0.74200
O1030       O  0.44210029  0.82330954  0.30348203    -0.74200
O1031       O  0.48864833  0.77079661  0.30794602    -0.74100
O1032       O  0.43757836  0.82186989  0.35873369    -0.74200
Ni1033     Ni  0.53819988  0.87141610  0.33334019     1.25400
Ni1034     Ni  0.46196784  0.79518802  0.33333967     1.25400
C1035       C  0.46460799  0.86296315  0.37053912     0.88100
C1036       C  0.52974255  0.79782513  0.29613987     0.88000
C1037       C  0.47045191  0.86875977  0.29613025     0.88000
C1038       C  0.53553398  0.80366113  0.37054875     0.88500
C1039       C  0.54035140  0.77374914  0.27325144     0.03400
C1040       C  0.56676336  0.79998528  0.25001726    -0.12700
C1041       C  0.56694366  0.77374426  0.22679507     0.00900
C1042       C  0.53936356  0.72131936  0.22690283    -0.11200
C1043       C  0.51404622  0.69450318  0.25004414     0.03400
C1044       C  0.51553470  0.72132609  0.27317430    -0.10700
H1045       H  0.58679192  0.84006775  0.25000681     0.09000
H1046       H  0.53968470  0.70103385  0.20910792     0.06600
H1047       H  0.49493543  0.70104717  0.29097916     0.06400
C1048       C  0.45985331  0.89283264  0.27324284     0.03400
C1049       C  0.48468470  0.94525707  0.27316579    -0.12700
C1050       C  0.48616131  0.97207561  0.25004292     0.00900
C1051       C  0.46082230  0.94525586  0.22690791    -0.11200
C1052       C  0.43322875  0.89283166  0.22679885     0.03400
C1053       C  0.43341728  0.86659222  0.25001425    -0.10700
H1054       H  0.50529801  0.96554112  0.29096536     0.09000
H1055       H  0.46049548  0.96554038  0.20911909     0.06600
H1056       H  0.41337589  0.82651059  0.25000328     0.06400
O1057       O  0.49007619  0.71459658  0.97014568    -0.74100
O1058       O  0.44213872  0.95190376  0.52988792    -0.74100
O1059       O  0.48866549  0.71771023  0.52539981    -0.74200
O1060       O  0.43757565  0.94879595  0.97463878    -0.74300
O1061       O  0.51006667  0.95199712  0.97013096    -0.74200
O1062       O  0.55807467  0.71473284  0.52986256    -0.74200
O1063       O  0.51154225  0.94892208  0.52538385    -0.74100
O1064       O  0.56257024  0.71779726  0.97461131    -0.74200
Ni1065     Ni  0.46197768  0.99991268  0.50001997     1.25400
Ni1066     Ni  0.53819941  0.66670022  0.99999754     1.25400
C1067       C  0.53552955  0.73177645  0.96279030     0.88100
C1068       C  0.47048036  0.93482868  0.53721801     0.88000
C1069       C  0.52974239  0.73181546  0.53721116     0.88000
C1070       C  0.46460696  0.93481589  0.96279675     0.88200
C1071       C  0.44053093  0.87357416  0.89342602     0.03400
C1072       C  0.38810673  0.84876076  0.89350214    -0.12700
C1073       C  0.36128081  0.84726397  0.91663346     0.00900
C1074       C  0.38809690  0.87257686  0.93977559    -0.11200
C1075       C  0.44052326  0.90015899  0.93988266     0.03400
C1076       C  0.46676638  0.89998140  0.91666056    -0.10700
H1077       H  0.36783029  0.82816650  0.87569648     0.09000
H1078       H  0.36781118  0.87289448  0.95757111     0.06600
H1079       H  0.50684959  0.92000825  0.91667134     0.06400
C1080       C  0.55960503  0.79305788  0.89343478     0.03400
C1081       C  0.53336389  0.76662833  0.91666490    -0.12700
C1082       C  0.55960423  0.76644528  0.93988089     0.00900
C1083       C  0.61202983  0.79404322  0.93977221    -0.11200
C1084       C  0.63885079  0.81937424  0.91663501     0.03400
C1085       C  0.61203061  0.81788520  0.89351012    -0.10700
H1086       H  0.49328085  0.74658735  0.91667648     0.09000
H1087       H  0.63231344  0.79372258  0.95756230     0.06600
H1088       H  0.63231324  0.83849101  0.87570859     0.06400
O1089       O  0.38138827  0.82330497  0.69653267    -0.74100
O1090       O  0.61869370  0.77535637  0.63679078    -0.74100
O1091       O  0.38450204  0.82188768  0.64127789    -0.74200
O1092       O  0.61558612  0.77079915  0.69204029    -0.74300
O1093       O  0.61877785  0.84328456  0.69654262    -0.74200
O1094       O  0.38152736  0.89129679  0.63681500    -0.74200
O1095       O  0.61571463  0.84476053  0.64128797    -0.74100
O1096       O  0.38458027  0.89579302  0.69206647    -0.74200
Ni1097     Ni  0.33337064  0.79520117  0.66665860     1.25400
Ni1098     Ni  0.33348761  0.87141931  0.66667743     1.25400
C1099       C  0.39856223  0.86875583  0.70388853     0.88100
C1100       C  0.60161995  0.80369703  0.62945706     0.88000
C1101       C  0.39860935  0.86296438  0.62946667     0.88000
C1102       C  0.60160129  0.79782794  0.70388008     0.88200
C1103       C  0.56695576  0.79312142  0.60655783     0.03400
C1104       C  0.56675152  0.76670212  0.58333069    -0.12700
C1105       C  0.54034263  0.76650283  0.56010691     0.00900
C1106       C  0.51553319  0.79407678  0.56020142    -0.11200
C1107       C  0.51406946  0.81942009  0.58333651     0.03400
C1108       C  0.53940010  0.81794998  0.60646862    -0.10700
H1109       H  0.58676693  0.74666851  0.58332885     0.09000
H1110       H  0.49492930  0.79372935  0.54240434     0.06600
H1111       H  0.53974808  0.83855970  0.62426872     0.06400
C1112       C  0.45990925  0.90016775  0.56011805     0.03400
C1113       C  0.48473963  0.87261378  0.56020785    -0.12700
C1114       C  0.48621058  0.84728532  0.58334087     0.00900
C1115       C  0.46087266  0.84875614  0.60647712    -0.11200
C1116       C  0.43329734  0.87356382  0.60657091     0.03400
C1117       C  0.43349101  0.89996571  0.58334553    -0.10700
H1118       H  0.50534814  0.87295913  0.54240684     0.09000
H1119       H  0.46052707  0.82815551  0.62427579     0.06600
H1120       H  0.41345457  0.91997765  0.58334652     0.06400
O1121       O  0.51006359  0.89130744  0.86318946    -0.74100
O1122       O  0.55808925  0.84327865  0.80349019    -0.74100
O1123       O  0.51153897  0.89579240  0.80793824    -0.74200
O1124       O  0.56256933  0.84474919  0.85874235    -0.74300
O1125       O  0.49008295  0.77531304  0.86319678    -0.74200
O1126       O  0.44210031  0.82330963  0.80348209    -0.74200
O1127       O  0.48864828  0.77079655  0.80794603    -0.74100
O1128       O  0.43757839  0.82186990  0.85873372    -0.74200
Ni1129     Ni  0.53819983  0.87141608  0.83334015     1.25400
Ni1130     Ni  0.46196784  0.79518799  0.83333970     1.25400
C1131       C  0.46460802  0.86296318  0.87053912     0.88100
C1132       C  0.52974254  0.79782503  0.79613991     0.88000
C1133       C  0.47045194  0.86875988  0.79613026     0.88000
C1134       C  0.53553396  0.80366118  0.87054878     0.88500
C1135       C  0.54035143  0.77374905  0.77325147     0.03400
C1136       C  0.56676346  0.79998523  0.75001732    -0.12700
C1137       C  0.56694374  0.77374425  0.72679509     0.00900
C1138       C  0.53936364  0.72131935  0.72690278    -0.11200
C1139       C  0.51404622  0.69450319  0.75004405     0.03400
C1140       C  0.51553449  0.72132592  0.77317431    -0.10700
H1141       H  0.58679195  0.84006760  0.75000691     0.09000
H1142       H  0.53968474  0.70103401  0.70910794     0.06600
H1143       H  0.49493552  0.70104744  0.79097868     0.06400
C1144       C  0.45985331  0.89283268  0.77324281     0.03400
C1145       C  0.48468487  0.94525722  0.77316579    -0.12700
C1146       C  0.48616143  0.97207560  0.75004281     0.00900
C1147       C  0.46082242  0.94525590  0.72690776    -0.11200
C1148       C  0.43322876  0.89283164  0.72679883     0.03400
C1149       C  0.43341732  0.86659226  0.75001424    -0.10700
H1150       H  0.50529764  0.96554078  0.79096487     0.09000
H1151       H  0.46049561  0.96554001  0.70911922     0.06600
H1152       H  0.41337591  0.82651057  0.75000330     0.06400
O1153       O  0.82340948  0.04792975  0.47014566    -0.74100
O1154       O  0.77547210  0.28523720  0.02988797    -0.74100
O1155       O  0.82199876  0.05104368  0.02539976    -0.74200
O1156       O  0.77090896  0.28212917  0.47463888    -0.74300
O1157       O  0.84340000  0.28533045  0.47013096    -0.74200
O1158       O  0.89140780  0.04806601  0.02986259    -0.74200
O1159       O  0.84487556  0.28225536  0.02538385    -0.74100
O1160       O  0.89590353  0.05113046  0.47461122    -0.74200
Ni1161     Ni  0.79531099  0.33324610  0.00001997     1.25400
Ni1162     Ni  0.87153280  0.00003357  0.49999752     1.25400
C1163       C  0.86886279  0.06510960  0.46279023     0.88100
C1164       C  0.80381369  0.26816201  0.03721802     0.88000
C1165       C  0.86307563  0.06514879  0.03721113     0.88000
C1166       C  0.79794029  0.26814917  0.46279680     0.88200
C1167       C  0.77386418  0.20690748  0.39342601     0.03400
C1168       C  0.72144000  0.18209396  0.39350212    -0.12700
C1169       C  0.69461411  0.18059732  0.41663347     0.00900
C1170       C  0.72143030  0.20591025  0.43977551    -0.11200
C1171       C  0.77385653  0.23349238  0.43988266     0.03400
C1172       C  0.80009988  0.23331490  0.41666053    -0.10700
H1173       H  0.70116368  0.16149974  0.37569666     0.09000
H1174       H  0.70114413  0.20622783  0.45757145     0.06600
H1175       H  0.84018187  0.25334112  0.41667132     0.06400
C1176       C  0.89293837  0.12639116  0.39343473     0.03400
C1177       C  0.86669708  0.09996143  0.41666482    -0.12700
C1178       C  0.89293753  0.09977852  0.43988085     0.00900
C1179       C  0.94536305  0.12737659  0.43977215    -0.11200
C1180       C  0.97218412  0.15270763  0.41663499     0.03400
C1181       C  0.94536392  0.15121853  0.39351010    -0.10700
H1182       H  0.82661483  0.07992074  0.41667639     0.09000
H1183       H  0.96564703  0.12705598  0.45756257     0.06600
H1184       H  0.96564669  0.17182449  0.37570850     0.06400
O1185       O  0.71472147  0.15663828  0.19653271    -0.74100
O1186       O  0.95202688  0.10868964  0.13679076    -0.74100
O1187       O  0.71783552  0.15522114  0.14127797    -0.74200
O1188       O  0.94891951  0.10413256  0.19204037    -0.74300
O1189       O  0.95211109  0.17661790  0.19654257    -0.74200
O1190       O  0.71486066  0.22463015  0.13681497    -0.74200
O1191       O  0.94904783  0.17809379  0.14128795    -0.74100
O1192       O  0.71791365  0.22912641  0.19206642    -0.74200
Ni1193     Ni  0.66670399  0.12853453  0.16665861     1.25400
Ni1194     Ni  0.66682090  0.20475268  0.16667739     1.25400
C1195       C  0.73189552  0.20208918  0.20388853     0.88100
C1196       C  0.93495313  0.13703027  0.12945703     0.88000
C1197       C  0.73194276  0.19629779  0.12946671     0.88000
C1198       C  0.93493458  0.13116131  0.20388010     0.88200
C1199       C  0.90028890  0.12645461  0.10655784     0.03400
C1200       C  0.90008464  0.10003531  0.08333070    -0.12700
C1201       C  0.87367593  0.09983614  0.06010690     0.00900
C1202       C  0.84886656  0.12741018  0.06020141    -0.11200
C1203       C  0.84740259  0.15275323  0.08333657     0.03400
C1204       C  0.87273313  0.15128305  0.10646871    -0.10700
H1205       H  0.92010016  0.08000157  0.08332887     0.09000
H1206       H  0.82826301  0.12706298  0.04240435     0.06600
H1207       H  0.87308113  0.17189267  0.12426875     0.06400
C1208       C  0.79324252  0.23350101  0.06011805     0.03400
C1209       C  0.81807312  0.20594711  0.06020775    -0.12700
C1210       C  0.81954392  0.18061868  0.08334091     0.00900
C1211       C  0.79420609  0.18208945  0.10647726    -0.11200
C1212       C  0.76663074  0.20689722  0.10657094     0.03400
C1213       C  0.76682438  0.23329904  0.08334555    -0.10700
H1214       H  0.83868083  0.20629244  0.04240743     0.09000
H1215       H  0.79386048  0.16148949  0.12427535     0.06600
H1216       H  0.74678798  0.25331100  0.08334655     0.06400
O1217       O  0.84339687  0.22464072  0.36318949    -0.74100
O1218       O  0.89142266  0.17661205  0.30349021    -0.74100
O1219       O  0.84487231  0.22912562  0.30793824    -0.74200
O1220       O  0.89590268  0.17808250  0.35874235    -0.74300
O1221       O  0.82341620  0.10864644  0.36319676    -0.74200
O1222       O  0.77543357  0.15664291  0.30348205    -0.74200
O1223       O  0.82198161  0.10412998  0.30794600    -0.74100
O1224       O  0.77091164  0.15520321  0.35873369    -0.74200
Ni1225     Ni  0.87153320  0.20474941  0.33334018     1.25400
Ni1226     Ni  0.79530110  0.12852135  0.33333967     1.25400
C1227       C  0.79794132  0.19629648  0.37053913     0.88100
C1228       C  0.86307585  0.13115846  0.29613988     0.88000
C1229       C  0.80378523  0.20209311  0.29613024     0.88000
C1230       C  0.86886722  0.13699446  0.37054875     0.88500
C1231       C  0.87368464  0.10708245  0.27325143     0.03400
C1232       C  0.90009663  0.13331860  0.25001726    -0.12700
C1233       C  0.90027691  0.10707759  0.22679507     0.00900
C1234       C  0.87269686  0.05465271  0.22690283    -0.11200
C1235       C  0.84737965  0.02783651  0.25004415     0.03400
C1236       C  0.84886798  0.05465940  0.27317429    -0.10700
H1237       H  0.92012524  0.17340108  0.25000684     0.09000
H1238       H  0.87301796  0.03436719  0.20910787     0.06600
H1239       H  0.82826869  0.03438050  0.29097912     0.06400
C1240       C  0.79318659  0.22616598  0.27324286     0.03400
C1241       C  0.81801800  0.27859040  0.27316581    -0.12700
C1242       C  0.81949480  0.30540896  0.25004290     0.00900
C1243       C  0.79415581  0.27858919  0.22690787    -0.11200
C1244       C  0.76656206  0.22616500  0.22679886     0.03400
C1245       C  0.76675052  0.19992555  0.25001426    -0.10700
H1246       H  0.83863123  0.29887446  0.29096543     0.09000
H1247       H  0.79382907  0.29887372  0.20911902     0.06600
H1248       H  0.74670910  0.15984392  0.25000330     0.06400
O1249       O  0.82340951  0.04792991  0.97014568    -0.74100
O1250       O  0.77547197  0.28523707  0.52988793    -0.74100
O1251       O  0.82199879  0.05104356  0.52539981    -0.74200
O1252       O  0.77090906  0.28212921  0.97463888    -0.74300
O1253       O  0.84340010  0.28533046  0.97013096    -0.74200
O1254       O  0.89140798  0.04806613  0.52986256    -0.74200
O1255       O  0.84487552  0.28225542  0.52538385    -0.74100
O1256       O  0.89590353  0.05113059  0.97461131    -0.74200
Ni1257     Ni  0.79531095  0.33324602  0.50001997     1.25400
Ni1258     Ni  0.87153271  0.00003355  0.99999754     1.25400
C1259       C  0.86886287  0.06510978  0.96279030     0.88100
C1260       C  0.80381365  0.26816199  0.53721800     0.88000
C1261       C  0.86307571  0.06514878  0.53721116     0.88000
C1262       C  0.79794035  0.26814920  0.96279679     0.88200
C1263       C  0.77386425  0.20690749  0.89342601     0.03400
C1264       C  0.72144008  0.18209407  0.89350217    -0.12700
C1265       C  0.69461413  0.18059732  0.91663346     0.00900
C1266       C  0.72143020  0.20591024  0.93977559    -0.11200
C1267       C  0.77385657  0.23349236  0.93988267     0.03400
C1268       C  0.80009967  0.23331475  0.91666057    -0.10700
H1269       H  0.70116347  0.16149960  0.87569636     0.09000
H1270       H  0.70114446  0.20622789  0.95757110     0.06600
H1271       H  0.84018288  0.25334161  0.91667135     0.06400
C1272       C  0.89293839  0.12639117  0.89343477     0.03400
C1273       C  0.86669727  0.09996160  0.91666488    -0.12700
C1274       C  0.89293757  0.09977862  0.93988090     0.00900
C1275       C  0.94536312  0.12737658  0.93977218    -0.11200
C1276       C  0.97218413  0.15270762  0.91663502     0.03400
C1277       C  0.94536392  0.15121851  0.89351015    -0.10700
H1278       H  0.82661413  0.07992051  0.91667645     0.09000
H1279       H  0.96564700  0.12705591  0.95756253     0.06600
H1280       H  0.96564676  0.17182454  0.87570844     0.06400
O1281       O  0.71472151  0.15663826  0.69653271    -0.74100
O1282       O  0.95202694  0.10868963  0.63679077    -0.74100
O1283       O  0.71783544  0.15522101  0.64127792    -0.74200
O1284       O  0.94891940  0.10413247  0.69204029    -0.74300
O1285       O  0.95211114  0.17661788  0.69654263    -0.74200
O1286       O  0.71486074  0.22463010  0.63681500    -0.74200
O1287       O  0.94904779  0.17809373  0.64128800    -0.74100
O1288       O  0.71791369  0.22912638  0.69206645    -0.74200
Ni1289     Ni  0.66670397  0.12853449  0.66665860     1.25400
Ni1290     Ni  0.66682098  0.20475264  0.66667743     1.25400
C1291       C  0.73189559  0.20208915  0.70388853     0.88100
C1292       C  0.93495315  0.13703027  0.62945707     0.88000
C1293       C  0.73194272  0.19629768  0.62946668     0.88000
C1294       C  0.93493462  0.13116127  0.70388010     0.88200
C1295       C  0.90028902  0.12645470  0.60655784     0.03400
C1296       C  0.90008483  0.10003543  0.58333070    -0.12700
C1297       C  0.87367603  0.09983619  0.56010690     0.00900
C1298       C  0.84886668  0.12741017  0.56020145    -0.11200
C1299       C  0.84740276  0.15275339  0.58333650     0.03400
C1300       C  0.87273337  0.15128328  0.60646863    -0.10700
H1301       H  0.92010027  0.08000171  0.58332889     0.09000
H1302       H  0.82826252  0.12706276  0.54240407     0.06600
H1303       H  0.87308132  0.17189300  0.62426872     0.06400
C1304       C  0.79324258  0.23350109  0.56011805     0.03400
C1305       C  0.81807311  0.20594715  0.56020779    -0.12700
C1306       C  0.81954389  0.18061861  0.58334087     0.00900
C1307       C  0.79420597  0.18208942  0.60647709    -0.11200
C1308       C  0.76663067  0.20689714  0.60657090     0.03400
C1309       C  0.76682450  0.23329898  0.58334552    -0.10700
H1310       H  0.83868127  0.20629253  0.54240713     0.09000
H1311       H  0.79386035  0.16148879  0.62427577     0.06600
H1312       H  0.74678752  0.25331151  0.58334652     0.06400
O1313       O  0.84339697  0.22464080  0.86318945    -0.74100
O1314       O  0.89142256  0.17661195  0.80349018    -0.74100
O1315       O  0.84487236  0.22912578  0.80793828    -0.74200
O1316       O  0.89590276  0.17808247  0.85874233    -0.74300
O1317       O  0.82341629  0.10864641  0.86319680    -0.74200
O1318       O  0.77543372  0.15664299  0.80348206    -0.74200
O1319       O  0.82198154  0.10412986  0.80794602    -0.74100
O1320       O  0.77091177  0.15520323  0.85873373    -0.74200
Ni1321     Ni  0.87153324  0.20474943  0.83334016     1.25400
Ni1322     Ni  0.79530117  0.12852133  0.83333970     1.25400
C1323       C  0.79794140  0.19629654  0.87053912     0.88100
C1324       C  0.86307580  0.13115833  0.79613990     0.88000
C1325       C  0.80378534  0.20209325  0.79613027     0.88000
C1326       C  0.86886732  0.13699449  0.87054878     0.88500
C1327       C  0.87368472  0.10708237  0.77325147     0.03400
C1328       C  0.90009671  0.13331856  0.75001731    -0.12700
C1329       C  0.90027704  0.10707759  0.72679510     0.00900
C1330       C  0.87269689  0.05465268  0.72690276    -0.11200
C1331       C  0.84737953  0.02783651  0.75004406     0.03400
C1332       C  0.84886795  0.05465926  0.77317434    -0.10700
H1333       H  0.92012518  0.17340096  0.75000690     0.09000
H1334       H  0.87301799  0.03436738  0.70910793     0.06600
H1335       H  0.82826910  0.03438077  0.79097879     0.06400
C1336       C  0.79318675  0.22616608  0.77324281     0.03400
C1337       C  0.81801819  0.27859058  0.77316577    -0.12700
C1338       C  0.81949472  0.30540896  0.75004282     0.00900
C1339       C  0.79415573  0.27858925  0.72690776    -0.11200
C1340       C  0.76656217  0.22616498  0.72679882     0.03400
C1341       C  0.76675067  0.19992560  0.75001426    -0.10700
H1342       H  0.83863104  0.29887426  0.79096496     0.09000
H1343       H  0.79382888  0.29887331  0.70911925     0.06600
H1344       H  0.74670926  0.15984409  0.75000336     0.06400
O1345       O  0.82340948  0.38126308  0.47014565    -0.74100
O1346       O  0.77547205  0.61857052  0.02988798    -0.74100
O1347       O  0.82199882  0.38437701  0.02539975    -0.74200
O1348       O  0.77090908  0.61546255  0.47463887    -0.74300
O1349       O  0.84340015  0.61866383  0.47013095    -0.74200
O1350       O  0.89140788  0.38139935  0.02986260    -0.74200
O1351       O  0.84487549  0.61558870  0.02538384    -0.74100
O1352       O  0.89590352  0.38446379  0.47461123    -0.74200
Ni1353     Ni  0.79531099  0.66657942  0.00001997     1.25400
Ni1354     Ni  0.87153272  0.33336690  0.49999752     1.25400
C1355       C  0.86886281  0.39844294  0.46279023     0.88100
C1356       C  0.80381368  0.60149533  0.03721801     0.88000
C1357       C  0.86307569  0.39848210  0.03721114     0.88000
C1358       C  0.79794040  0.60148257  0.46279679     0.88200
C1359       C  0.77386423  0.54024082  0.39342602     0.03400
C1360       C  0.72144000  0.51542724  0.39350214    -0.12700
C1361       C  0.69461413  0.51393064  0.41663348     0.00900
C1362       C  0.72143025  0.53924363  0.43977557    -0.11200
C1363       C  0.77385662  0.56682577  0.43988265     0.03400
C1364       C  0.80009970  0.56664817  0.41666054    -0.10700
H1365       H  0.70116374  0.49483308  0.37569670     0.09000
H1366       H  0.70114449  0.53956127  0.45757115     0.06600
H1367       H  0.84018290  0.58667503  0.41667131     0.06400
C1368       C  0.89293842  0.45972449  0.39343471     0.03400
C1369       C  0.86669715  0.43329475  0.41666481    -0.12700
C1370       C  0.89293756  0.43311188  0.43988085     0.00900
C1371       C  0.94536310  0.46070991  0.43977216    -0.11200
C1372       C  0.97218415  0.48604101  0.41663500     0.03400
C1373       C  0.94536393  0.48455190  0.39351013    -0.10700
H1374       H  0.82661472  0.41325393  0.41667636     0.09000
H1375       H  0.96564698  0.46038922  0.45756247     0.06600
H1376       H  0.96564684  0.50515803  0.37570838     0.06400
O1377       O  0.71472152  0.48997159  0.19653270    -0.74100
O1378       O  0.95202701  0.44202299  0.13679074    -0.74100
O1379       O  0.71783553  0.48855450  0.14127799    -0.74200
O1380       O  0.94891944  0.43746588  0.19204032    -0.74300
O1381       O  0.95211112  0.50995127  0.19654258    -0.74200
O1382       O  0.71486065  0.55796347  0.13681495    -0.74200
O1383       O  0.94904784  0.51142709  0.14128795    -0.74100
O1384       O  0.71791378  0.56245973  0.19206640    -0.74200
Ni1385     Ni  0.66670398  0.46186787  0.16665861     1.25400
Ni1386     Ni  0.66682099  0.53808602  0.16667739     1.25400
C1387       C  0.73189563  0.53542249  0.20388852     0.88100
C1388       C  0.93495320  0.47036358  0.12945703     0.88000
C1389       C  0.73194276  0.52963112  0.12946671     0.88000
C1390       C  0.93493458  0.46449468  0.20388008     0.88200
C1391       C  0.90028898  0.45978795  0.10655783     0.03400
C1392       C  0.90008479  0.43336856  0.08333070    -0.12700
C1393       C  0.87367593  0.43316945  0.06010691     0.00900
C1394       C  0.84886668  0.46074351  0.06020147    -0.11200
C1395       C  0.84740265  0.48608658  0.08333657     0.03400
C1396       C  0.87273323  0.48461641  0.10646871    -0.10700
H1397       H  0.92009982  0.41333528  0.08332885     0.09000
H1398       H  0.82826276  0.46039631  0.04240412     0.06600
H1399       H  0.87308119  0.50522599  0.12426874     0.06400
C1400       C  0.79324258  0.56683439  0.06011806     0.03400
C1401       C  0.81807323  0.53928047  0.06020775    -0.12700
C1402       C  0.81954391  0.51395197  0.08334092     0.00900
C1403       C  0.79420604  0.51542275  0.10647723    -0.11200
C1404       C  0.76663071  0.54023056  0.10657093     0.03400
C1405       C  0.76682452  0.56663231  0.08334553    -0.10700
H1406       H  0.83868095  0.53962586  0.04240750     0.09000
H1407       H  0.79386043  0.49482272  0.12427545     0.06600
H1408       H  0.74678759  0.58664484  0.08334652     0.06400
O1409       O  0.84339686  0.55797404  0.36318950    -0.74100
O1410       O  0.89142257  0.50994540  0.30349020    -0.74100
O1411       O  0.84487223  0.56245895  0.30793827    -0.74200
O1412       O  0.89590264  0.51141587  0.35874236    -0.74300
O1413       O  0.82341626  0.44197972  0.36319674    -0.74200
O1414       O  0.77543353  0.48997623  0.30348206    -0.74200
O1415       O  0.82198159  0.43746330  0.30794598    -0.74100
O1416       O  0.77091164  0.48853656  0.35873368    -0.74200
Ni1417     Ni  0.87153311  0.53808274  0.33334019     1.25400
Ni1418     Ni  0.79530112  0.46185469  0.33333967     1.25400
C1419       C  0.79794129  0.52962980  0.37053913     0.88100
C1420       C  0.86307585  0.46449181  0.29613988     0.88000
C1421       C  0.80378521  0.53542643  0.29613024     0.88000
C1422       C  0.86886726  0.47032779  0.37054874     0.88500
C1423       C  0.87368472  0.44041581  0.27325146     0.03400
C1424       C  0.90009677  0.46665200  0.25001730    -0.12700
C1425       C  0.90027701  0.44041097  0.22679509     0.00900
C1426       C  0.87269697  0.38798615  0.22690290    -0.11200
C1427       C  0.84737959  0.36116987  0.25004413     0.03400
C1428       C  0.84886789  0.38799275  0.27317427    -0.10700
H1429       H  0.92012530  0.50673439  0.25000686     0.09000
H1430       H  0.87301810  0.36770032  0.20910768     0.06600
H1431       H  0.82826847  0.36771380  0.29097908     0.06400
C1432       C  0.79318669  0.55949931  0.27324283     0.03400
C1433       C  0.81801811  0.61192374  0.27316579    -0.12700
C1434       C  0.81949472  0.63874228  0.25004292     0.00900
C1435       C  0.79415571  0.61192252  0.22690791    -0.11200
C1436       C  0.76656215  0.55949832  0.22679885     0.03400
C1437       C  0.76675065  0.53325889  0.25001425    -0.10700
H1438       H  0.83863140  0.63220778  0.29096536     0.09000
H1439       H  0.79382888  0.63220704  0.20911909     0.06600
H1440       H  0.74670920  0.49317725  0.25000330     0.06400
O1441       O  0.82340957  0.38126323  0.97014568    -0.74100
O1442       O  0.77547203  0.61857041  0.52988792    -0.74100
O1443       O  0.82199870  0.38437689  0.52539981    -0.74200
O1444       O  0.77090901  0.61546253  0.97463887    -0.74300
O1445       O  0.84340005  0.61866381  0.97013097    -0.74200
O1446       O  0.89140787  0.38139947  0.52986256    -0.74200
O1447       O  0.84487561  0.61558875  0.52538385    -0.74100
O1448       O  0.89590363  0.38446393  0.97461130    -0.74200
Ni1449     Ni  0.79531093  0.66657936  0.50001997     1.25400
Ni1450     Ni  0.87153280  0.33336689  0.99999754     1.25400
C1451       C  0.86886291  0.39844310  0.96279030     0.88100
C1452       C  0.80381369  0.60149534  0.53721800     0.88000
C1453       C  0.86307561  0.39848212  0.53721116     0.88000
C1454       C  0.79794034  0.60148254  0.96279678     0.88200
C1455       C  0.77386426  0.54024080  0.89342603     0.03400
C1456       C  0.72144009  0.51542743  0.89350215    -0.12700
C1457       C  0.69461417  0.51393070  0.91663347     0.00900
C1458       C  0.72143033  0.53924356  0.93977554    -0.11200
C1459       C  0.77385662  0.56682567  0.93988268     0.03400
C1460       C  0.80009975  0.56664805  0.91666057    -0.10700
H1461       H  0.70116359  0.49483312  0.87569648     0.09000
H1462       H  0.70114425  0.53956118  0.95757138     0.06600
H1463       H  0.84018291  0.58667487  0.91667135     0.06400
C1464       C  0.89293837  0.45972452  0.89343477     0.03400
C1465       C  0.86669722  0.43329497  0.91666488    -0.12700
C1466       C  0.89293758  0.43311195  0.93988089     0.00900
C1467       C  0.94536310  0.46070994  0.93977216    -0.11200
C1468       C  0.97218415  0.48604090  0.91663501     0.03400
C1469       C  0.94536396  0.48455185  0.89351011    -0.10700
H1470       H  0.82661421  0.41325398  0.91667647     0.09000
H1471       H  0.96564709  0.46038932  0.95756260     0.06600
H1472       H  0.96564662  0.50515767  0.87570857     0.06400
O1473       O  0.71472147  0.48997162  0.69653271    -0.74100
O1474       O  0.95202682  0.44202290  0.63679079    -0.74100
O1475       O  0.71783539  0.48855435  0.64127789    -0.74200
O1476       O  0.94891942  0.43746578  0.69204030    -0.74300
O1477       O  0.95211122  0.50995120  0.69654263    -0.74200
O1478       O  0.71486070  0.55796344  0.63681498    -0.74200
O1479       O  0.94904790  0.51142711  0.64128797    -0.74100
O1480       O  0.71791363  0.56245974  0.69206645    -0.74200
Ni1481     Ni  0.66670397  0.46186782  0.66665860     1.25400
Ni1482     Ni  0.66682095  0.53808595  0.66667743     1.25400
C1483       C  0.73189549  0.53542250  0.70388856     0.88100
C1484       C  0.93495314  0.47036362  0.62945706     0.88000
C1485       C  0.73194267  0.52963104  0.62946666     0.88000
C1486       C  0.93493465  0.46449460  0.70388011     0.88200
C1487       C  0.90028895  0.45978803  0.60655785     0.03400
C1488       C  0.90008464  0.43336883  0.58333071    -0.12700
C1489       C  0.87367592  0.43316950  0.56010691     0.00900
C1490       C  0.84886654  0.46074351  0.56020140    -0.11200
C1491       C  0.84740277  0.48608677  0.58333649     0.03400
C1492       C  0.87273331  0.48461665  0.60646866    -0.10700
H1493       H  0.92010053  0.41333473  0.58332888     0.09000
H1494       H  0.82826269  0.46039610  0.54240430     0.06600
H1495       H  0.87308131  0.50522625  0.62426861     0.06400
C1496       C  0.79324261  0.56683441  0.56011805     0.03400
C1497       C  0.81807304  0.53928046  0.56020779    -0.12700
C1498       C  0.81954393  0.51395200  0.58334087     0.00900
C1499       C  0.79420602  0.51542282  0.60647711    -0.11200
C1500       C  0.76663069  0.54023048  0.60657091     0.03400
C1501       C  0.76682438  0.56663240  0.58334553    -0.10700
H1502       H  0.83868124  0.53962577  0.54240702     0.09000
H1503       H  0.79386040  0.49482215  0.62427580     0.06600
H1504       H  0.74678799  0.58664426  0.58334652     0.06400
O1505       O  0.84339687  0.55797413  0.86318943    -0.74100
O1506       O  0.89142262  0.50994531  0.80349020    -0.74100
O1507       O  0.84487233  0.56245909  0.80793824    -0.74200
O1508       O  0.89590266  0.51141581  0.85874234    -0.74300
O1509       O  0.82341619  0.44197975  0.86319680    -0.74200
O1510       O  0.77543361  0.48997635  0.80348208    -0.74200
O1511       O  0.82198159  0.43746323  0.80794604    -0.74100
O1512       O  0.77091166  0.48853656  0.85873372    -0.74200
Ni1513     Ni  0.87153317  0.53808275  0.83334015     1.25400
Ni1514     Ni  0.79530108  0.46185466  0.83333970     1.25400
C1515       C  0.79794133  0.52962984  0.87053912     0.88100
C1516       C  0.86307585  0.46449169  0.79613992     0.88000
C1517       C  0.80378526  0.53542659  0.79613027     0.88000
C1518       C  0.86886725  0.47032782  0.87054878     0.88500
C1519       C  0.87368468  0.44041571  0.77325145     0.03400
C1520       C  0.90009681  0.46665191  0.75001733    -0.12700
C1521       C  0.90027708  0.44041092  0.72679510     0.00900
C1522       C  0.87269686  0.38798606  0.72690278    -0.11200
C1523       C  0.84737956  0.36116985  0.75004405     0.03400
C1524       C  0.84886784  0.38799259  0.77317431    -0.10700
H1525       H  0.92012539  0.50673428  0.75000694     0.09000
H1526       H  0.87301788  0.36770054  0.70910775     0.06600
H1527       H  0.82826893  0.36771410  0.79097873     0.06400
C1528       C  0.79318666  0.55949942  0.77324283     0.03400
C1529       C  0.81801806  0.61192391  0.77316580    -0.12700
C1530       C  0.81949477  0.63874229  0.75004280     0.00900
C1531       C  0.79415580  0.61192257  0.72690774    -0.11200
C1532       C  0.76656211  0.55949831  0.72679883     0.03400
C1533       C  0.76675071  0.53325893  0.75001424    -0.10700
H1534       H  0.83863082  0.63220758  0.79096503     0.09000
H1535       H  0.79382899  0.63220665  0.70911919     0.06600
H1536       H  0.74670941  0.49317743  0.75000332     0.06400
O1537       O  0.82340944  0.71459643  0.47014566    -0.74100
O1538       O  0.77547208  0.95190387  0.02988797    -0.74100
O1539       O  0.82199877  0.71771033  0.02539975    -0.74200
O1540       O  0.77090897  0.94879584  0.47463887    -0.74300
O1541       O  0.84340004  0.95199713  0.47013096    -0.74200
O1542       O  0.89140780  0.71473267  0.02986258    -0.74200
O1543       O  0.84487553  0.94892202  0.02538385    -0.74100
O1544       O  0.89590351  0.71779713  0.47461123    -0.74200
Ni1545     Ni  0.79531095  0.99991277  0.00001997     1.25400
Ni1546     Ni  0.87153282  0.66670025  0.49999752     1.25400
C1547       C  0.86886276  0.73177627  0.46279023     0.88100
C1548       C  0.80381367  0.93482867  0.03721802     0.88000
C1549       C  0.86307564  0.73181546  0.03721111     0.88000
C1550       C  0.79794031  0.93481583  0.46279680     0.88200
C1551       C  0.77386420  0.87357416  0.39342601     0.03400
C1552       C  0.72143998  0.84876060  0.39350211    -0.12700
C1553       C  0.69461415  0.84726401  0.41663348     0.00900
C1554       C  0.72143033  0.87257692  0.43977552    -0.11200
C1555       C  0.77385659  0.90015902  0.43988267     0.03400
C1556       C  0.80009988  0.89998155  0.41666053    -0.10700
H1557       H  0.70116380  0.82816651  0.37569680     0.09000
H1558       H  0.70114425  0.87289452  0.45757140     0.06600
H1559       H  0.84018205  0.92000789  0.41667129     0.06400
C1560       C  0.89293841  0.79305783  0.39343472     0.03400
C1561       C  0.86669710  0.76662812  0.41666481    -0.12700
C1562       C  0.89293753  0.76644521  0.43988085     0.00900
C1563       C  0.94536306  0.79404327  0.43977215    -0.11200
C1564       C  0.97218416  0.81937429  0.41663500     0.03400
C1565       C  0.94536397  0.81788522  0.39351010    -0.10700
H1566       H  0.82661479  0.74658739  0.41667637     0.09000
H1567       H  0.96564701  0.79372264  0.45756256     0.06600
H1568       H  0.96564673  0.83849114  0.37570851     0.06400
O1569       O  0.71472148  0.82330496  0.19653271    -0.74100
O1570       O  0.95202685  0.77535626  0.13679076    -0.74100
O1571       O  0.71783551  0.82188780  0.14127796    -0.74200
O1572       O  0.94891951  0.77079922  0.19204036    -0.74300
O1573       O  0.95211108  0.84328456  0.19654256    -0.74200
O1574       O  0.71486073  0.89129684  0.13681497    -0.74200
O1575       O  0.94904793  0.84476047  0.14128791    -0.74100
O1576       O  0.71791371  0.89579310  0.19206641    -0.74200
Ni1577     Ni  0.66670402  0.79520121  0.16665861     1.25400
Ni1578     Ni  0.66682099  0.87141934  0.16667739     1.25400
C1579       C  0.73189553  0.86875584  0.20388854     0.88100
C1580       C  0.93495316  0.80369692  0.12945701     0.88000
C1581       C  0.73194277  0.86296446  0.12946670     0.88000
C1582       C  0.93493461  0.79782798  0.20388010     0.88200
C1583       C  0.90028893  0.79312128  0.10655782     0.03400
C1584       C  0.90008464  0.76670197  0.08333066    -0.12700
C1585       C  0.87367597  0.76650285  0.06010686     0.00900
C1586       C  0.84886658  0.79407685  0.06020136    -0.11200
C1587       C  0.84740266  0.81941996  0.08333653     0.03400
C1588       C  0.87273321  0.81794969  0.10646858    -0.10700
H1589       H  0.92010013  0.74666817  0.08332884     0.09000
H1590       H  0.82826292  0.79372959  0.04240431     0.06600
H1591       H  0.87308124  0.83855984  0.12426905     0.06400
C1592       C  0.79324251  0.90016768  0.06011805     0.03400
C1593       C  0.81807312  0.87261378  0.06020774    -0.12700
C1594       C  0.81954394  0.84728535  0.08334090     0.00900
C1595       C  0.79420610  0.84875615  0.10647723    -0.11200
C1596       C  0.76663074  0.87356388  0.10657094     0.03400
C1597       C  0.76682437  0.89996571  0.08334554    -0.10700
H1598       H  0.83868082  0.87295912  0.04240742     0.09000
H1599       H  0.79386051  0.82815606  0.12427546     0.06600
H1600       H  0.74678797  0.91997766  0.08334656     0.06400
O1601       O  0.84339686  0.89130739  0.36318949    -0.74100
O1602       O  0.89142264  0.84327872  0.30349021    -0.74100
O1603       O  0.84487230  0.89579229  0.30793824    -0.74200
O1604       O  0.89590270  0.84474917  0.35874235    -0.74300
O1605       O  0.82341622  0.77531311  0.36319676    -0.74200
O1606       O  0.77543355  0.82330958  0.30348205    -0.74200
O1607       O  0.82198160  0.77079665  0.30794600    -0.74100
O1608       O  0.77091163  0.82186988  0.35873370    -0.74200
Ni1609     Ni  0.87153319  0.87141608  0.33334018     1.25400
Ni1610     Ni  0.79530110  0.79518802  0.33333967     1.25400
C1611       C  0.79794130  0.86296315  0.37053913     0.88100
C1612       C  0.86307584  0.79782514  0.29613987     0.88000
C1613       C  0.80378521  0.86875977  0.29613024     0.88000
C1614       C  0.86886727  0.80366112  0.37054874     0.88500
C1615       C  0.87368463  0.77374913  0.27325143     0.03400
C1616       C  0.90009666  0.79998528  0.25001727    -0.12700
C1617       C  0.90027702  0.77374425  0.22679510     0.00900
C1618       C  0.87269689  0.72131937  0.22690284    -0.11200
C1619       C  0.84737961  0.69450318  0.25004415     0.03400
C1620       C  0.84886797  0.72132607  0.27317429    -0.10700
H1621       H  0.92012522  0.84006774  0.25000683     0.09000
H1622       H  0.87301792  0.70103382  0.20910785     0.06600
H1623       H  0.82826868  0.70104718  0.29097911     0.06400
C1624       C  0.79318656  0.89283264  0.27324286     0.03400
C1625       C  0.81801798  0.94525705  0.27316581    -0.12700
C1626       C  0.81949479  0.97207560  0.25004291     0.00900
C1627       C  0.79415579  0.94525585  0.22690788    -0.11200
C1628       C  0.76656204  0.89283166  0.22679886     0.03400
C1629       C  0.76675051  0.86659222  0.25001427    -0.10700
H1630       H  0.83863123  0.96554110  0.29096543     0.09000
H1631       H  0.79382905  0.96554038  0.20911903     0.06600
H1632       H  0.74670908  0.82651059  0.25000330     0.06400
O1633       O  0.82340952  0.71459658  0.97014568    -0.74100
O1634       O  0.77547196  0.95190375  0.52988793    -0.74100
O1635       O  0.82199875  0.71771024  0.52539982    -0.74200
O1636       O  0.77090904  0.94879588  0.97463887    -0.74300
O1637       O  0.84340007  0.95199713  0.97013096    -0.74200
O1638       O  0.89140795  0.71473280  0.52986256    -0.74200
O1639       O  0.84487553  0.94892208  0.52538385    -0.74100
O1640       O  0.89590353  0.71779726  0.97461131    -0.74200
Ni1641     Ni  0.79531096  0.99991269  0.50001997     1.25400
Ni1642     Ni  0.87153270  0.66670023  0.99999754     1.25400
C1643       C  0.86886287  0.73177646  0.96279030     0.88100
C1644       C  0.80381365  0.93482866  0.53721800     0.88000
C1645       C  0.86307568  0.73181545  0.53721116     0.88000
C1646       C  0.79794033  0.93481587  0.96279679     0.88200
C1647       C  0.77386424  0.87357416  0.89342601     0.03400
C1648       C  0.72144007  0.84876074  0.89350217    -0.12700
C1649       C  0.69461411  0.84726399  0.91663346     0.00900
C1650       C  0.72143018  0.87257691  0.93977559    -0.11200
C1651       C  0.77385656  0.90015903  0.93988267     0.03400
C1652       C  0.80009966  0.89998142  0.91666057    -0.10700
H1653       H  0.70116346  0.82816627  0.87569636     0.09000
H1654       H  0.70114445  0.87289456  0.95757110     0.06600
H1655       H  0.84018286  0.92000828  0.91667135     0.06400
C1656       C  0.89293841  0.79305785  0.89343477     0.03400
C1657       C  0.86669728  0.76662828  0.91666488    -0.12700
C1658       C  0.89293759  0.76644530  0.93988090     0.00900
C1659       C  0.94536313  0.79404323  0.93977217    -0.11200
C1660       C  0.97218416  0.81937424  0.91663501     0.03400
C1661       C  0.94536394  0.81788518  0.89351016    -0.10700
H1662       H  0.82661416  0.74658721  0.91667645     0.09000
H1663       H  0.96564707  0.79372257  0.95756255     0.06600
H1664       H  0.96564680  0.83849125  0.87570844     0.06400
O1665       O  0.71472159  0.82330494  0.69653271    -0.74100
O1666       O  0.95202693  0.77535629  0.63679077    -0.74100
O1667       O  0.71783551  0.82188770  0.64127792    -0.74200
O1668       O  0.94891939  0.77079914  0.69204029    -0.74300
O1669       O  0.95211121  0.84328457  0.69654263    -0.74200
O1670       O  0.71486074  0.89129677  0.63681500    -0.74200
O1671       O  0.94904787  0.84476042  0.64128800    -0.74100
O1672       O  0.71791368  0.89579304  0.69206645    -0.74200
Ni1673     Ni  0.66670406  0.79520116  0.66665861     1.25400
Ni1674     Ni  0.66682100  0.87141933  0.66667743     1.25400
C1675       C  0.73189559  0.86875583  0.70388854     0.88100
C1676       C  0.93495316  0.80369694  0.62945707     0.88000
C1677       C  0.73194273  0.86296436  0.62946667     0.88000
C1678       C  0.93493462  0.79782795  0.70388010     0.88200
C1679       C  0.90028900  0.79312138  0.60655784     0.03400
C1680       C  0.90008481  0.76670211  0.58333071    -0.12700
C1681       C  0.87367601  0.76650286  0.56010690     0.00900
C1682       C  0.84886666  0.79407684  0.56020145    -0.11200
C1683       C  0.84740275  0.81942006  0.58333650     0.03400
C1684       C  0.87273335  0.81794996  0.60646863    -0.10700
H1685       H  0.92010026  0.74666838  0.58332889     0.09000
H1686       H  0.82826251  0.79372943  0.54240407     0.06600
H1687       H  0.87308131  0.83855968  0.62426872     0.06400
C1688       C  0.79324256  0.90016776  0.56011805     0.03400
C1689       C  0.81807309  0.87261382  0.56020779    -0.12700
C1690       C  0.81954387  0.84728528  0.58334087     0.00900
C1691       C  0.79420596  0.84875610  0.60647709    -0.11200
C1692       C  0.76663066  0.87356382  0.60657089     0.03400
C1693       C  0.76682449  0.89996565  0.58334552    -0.10700
H1694       H  0.83868125  0.87295920  0.54240714     0.09000
H1695       H  0.79386034  0.82815547  0.62427577     0.06600
H1696       H  0.74678750  0.91997819  0.58334652     0.06400
O1697       O  0.84339696  0.89130747  0.86318945    -0.74100
O1698       O  0.89142255  0.84327862  0.80349018    -0.74100
O1699       O  0.84487233  0.89579243  0.80793828    -0.74200
O1700       O  0.89590275  0.84474914  0.85874233    -0.74300
O1701       O  0.82341628  0.77531309  0.86319680    -0.74200
O1702       O  0.77543369  0.82330963  0.80348207    -0.74200
O1703       O  0.82198153  0.77079653  0.80794602    -0.74100
O1704       O  0.77091176  0.82186990  0.85873373    -0.74200
Ni1705     Ni  0.87153323  0.87141610  0.83334016     1.25400
Ni1706     Ni  0.79530116  0.79518800  0.83333970     1.25400
C1707       C  0.79794138  0.86296321  0.87053912     0.88100
C1708       C  0.86307578  0.79782500  0.79613990     0.88000
C1709       C  0.80378532  0.86875989  0.79613026     0.88000
C1710       C  0.86886731  0.80366116  0.87054879     0.88500
C1711       C  0.87368470  0.77374904  0.77325147     0.03400
C1712       C  0.90009669  0.79998524  0.75001731    -0.12700
C1713       C  0.90027703  0.77374427  0.72679509     0.00900
C1714       C  0.87269689  0.72131937  0.72690275    -0.11200
C1715       C  0.84737955  0.69450319  0.75004405     0.03400
C1716       C  0.84886794  0.72132593  0.77317433    -0.10700
H1717       H  0.92012517  0.84006763  0.75000690     0.09000
H1718       H  0.87301800  0.70103407  0.70910793     0.06600
H1719       H  0.82826908  0.70104744  0.79097879     0.06400
C1720       C  0.79318669  0.89283268  0.77324280     0.03400
C1721       C  0.81801815  0.94525721  0.77316578    -0.12700
C1722       C  0.81949468  0.97207559  0.75004282     0.00900
C1723       C  0.79415570  0.94525590  0.72690776    -0.11200
C1724       C  0.76656214  0.89283163  0.72679882     0.03400
C1725       C  0.76675067  0.86659225  0.75001424    -0.10700
H1726       H  0.83863092  0.96554080  0.79096492     0.09000
H1727       H  0.79382885  0.96553997  0.70911927     0.06600
H1728       H  0.74670921  0.82651055  0.75000331     0.06400
loop_ 
_geom_bond_atom_site_label_1 
_geom_bond_atom_site_label_2 
_geom_bond_distance 
_geom_bond_site_symmetry_2 
_ccdc_geom_bond_type 
O1           C11   1.292       .  A
O1         Ni489   1.964   1_545  S
O2           C12   1.292       .  A
O2           Ni9   1.964       .  S
O3           C13   1.269       .  A
O3         Ni393   1.862   1_545  S
O4           C14   1.269       .  A
O4         Ni105   1.862       .  S
O5           C14   1.292       .  A
O5         Ni202   1.964       .  S
O6           C13   1.292       .  A
O6         Ni106   1.964   1_554  S
O7           C12   1.269       .  A
O7         Ni298   1.862   1_554  S
O8           C11   1.269       .  A
O8          Ni10   1.862       .  S
Ni9         O289   1.964   1_554  S
Ni9         O195   1.862       .  S
Ni9         O100   1.862   1_554  S
Ni9        Ni298   2.378   1_554  S
Ni10        O389   1.964   1_545  S
Ni10        O102   1.964       .  S
Ni10        O487   1.862   1_545  S
Ni10       Ni489   2.378   1_545  S
C11          C26   1.480       .  S
C12          C56   1.480       .  S
C13          C49   1.480       .  S
C14          C19   1.480       .  S
C15          C75   1.480       .  S
C15          C16   1.417       .  A
C15          C20   1.407       .  A
C16          C17   1.399       .  A
C16          H21   1.083       .  S
C17        C1180   1.507   1_455  S
C17          C18   1.399       .  A
C18          C19   1.417       .  A
C18          H22   1.083       .  S
C19          C20   1.407       .  A
C20          H23   1.083       .  S
C24          C78   1.480       .  S
C24          C25   1.407       .  A
C24          C29   1.417       .  A
C25          C26   1.407       .  A
C25          H30   1.083       .  S
C26          C27   1.417       .  A
C27          C28   1.399       .  A
C27          H31   1.083       .  S
C28         C593   1.507       .  S
C28          C29   1.399       .  A
C29          H32   1.083       .  S
O33          C43   1.292       .  A
O33         Ni41   1.964       .  S
O34          C44   1.292       .  A
O34        Ni617   1.964       .  S
O35          C45   1.269       .  A
O35         Ni41   1.862       .  S
O36          C46   1.269       .  A
O36        Ni617   1.862       .  S
O37          C46   1.292       .  A
O37        Ni618   1.964       .  S
O38          C45   1.292       .  A
O38         Ni42   1.964       .  S
O39          C44   1.269       .  A
O39        Ni618   1.862       .  S
O40          C43   1.269       .  A
O40         Ni42   1.862       .  S
Ni41       O1186   1.964   1_455  S
Ni41       O1188   1.862   1_455  S
Ni41        Ni42   2.378       .  S
Ni42       O1189   1.964   1_455  S
Ni42       O1191   1.862   1_455  S
C43          C92   1.480       .  S
C44          C47   1.480       .  S
C45          C60   1.480       .  S
C46          C81   1.480       .  S
C47          C48   1.407       .  A
C47          C52   1.417       .  A
C48          C49   1.407       .  A
C48          H53   1.083       .  S
C49          C50   1.417       .  A
C50          C51   1.399       .  A
C50          H54   1.083       .  S
C51          C58   1.507       .  S
C51          C52   1.399       .  A
C52          H55   1.083       .  S
C56          C57   1.417       .  A
C56          C61   1.407       .  A
C57          C58   1.399       .  A
C57          H62   1.083       .  S
C58          C59   1.399       .  A
C59          C60   1.417       .  A
C59          H63   1.083       .  S
C60          C61   1.407       .  A
C61          H64   1.083       .  S
O65          C75   1.292       .  A
O65         Ni73   1.964       .  S
O66          C76   1.292       .  A
O66         Ni73   1.964       .  S
O67          C77   1.269       .  A
O67         Ni73   1.862       .  S
O68          C78   1.269       .  A
O68         Ni73   1.862       .  S
O69          C78   1.292       .  A
O69         Ni74   1.964       .  S
O70          C77   1.292       .  A
O70         Ni74   1.964       .  S
O71          C76   1.269       .  A
O71         Ni74   1.862       .  S
O72          C75   1.269       .  A
O72         Ni74   1.862       .  S
Ni73        Ni74   2.378       .  S
C76          C79   1.480       .  S
C77          C88   1.480       .  S
C79          C80   1.407       .  A
C79          C84   1.417       .  A
C80          C81   1.407       .  A
C80          H85   1.083       .  S
C81          C82   1.417       .  A
C82          C83   1.399       .  A
C82          H86   1.083       .  S
C83         C474   1.507   1_545  S
C83          C84   1.399       .  A
C84          H87   1.083       .  S
C88          C89   1.417       .  A
C88          C93   1.407       .  A
C89          C90   1.399       .  A
C89          H94   1.083       .  S
C90         C275   1.507       .  S
C90          C91   1.399       .  A
C91          C92   1.417       .  A
C91          H95   1.083       .  S
C92          C93   1.407       .  A
C93          H96   1.083       .  S
O97         C107   1.292       .  A
O97        Ni393   1.964   1_546  S
O98         C108   1.292       .  A
O98        Ni105   1.964       .  S
O99         C109   1.269       .  A
O99        Ni489   1.862   1_545  S
O100        C110   1.269       .  A
O101        C110   1.292       .  A
O101       Ni298   1.964       .  S
O102        C109   1.292       .  A
O103        C108   1.269       .  A
O103       Ni202   1.862       .  S
O104        C107   1.269       .  A
O104       Ni106   1.862       .  S
Ni105       O193   1.964       .  S
Ni105       O291   1.862       .  S
Ni105      Ni202   2.378       .  S
Ni106       O485   1.964   1_545  S
Ni106       O391   1.862   1_546  S
Ni106      Ni393   2.378   1_546  S
C107        C122   1.480       .  S
C108        C152   1.480       .  S
C109        C145   1.480       .  S
C110        C115   1.480       .  S
C111        C171   1.480       .  S
C111        C112   1.417       .  A
C111        C116   1.407       .  A
C112        C113   1.399       .  A
C112        H117   1.083       .  S
C113       C1276   1.507   1_455  S
C113        C114   1.399       .  A
C114        C115   1.417       .  A
C114        H118   1.083       .  S
C115        C116   1.407       .  A
C116        H119   1.083       .  S
C120        C174   1.480       .  S
C120        C121   1.407       .  A
C120        C125   1.417       .  A
C121        C122   1.407       .  A
C121        H126   1.083       .  S
C122        C123   1.417       .  A
C123        C124   1.399       .  A
C123        H127   1.083       .  S
C124        C689   1.507       .  S
C124        C125   1.399       .  A
C125        H128   1.083       .  S
O129        C139   1.292       .  A
O129       Ni137   1.964       .  S
O130        C140   1.292       .  A
O130       Ni713   1.964       .  S
O131        C141   1.269       .  A
O131       Ni137   1.862       .  S
O132        C142   1.269       .  A
O132       Ni713   1.862       .  S
O133        C142   1.292       .  A
O133       Ni714   1.964       .  S
O134        C141   1.292       .  A
O134       Ni138   1.964       .  S
O135        C140   1.269       .  A
O135       Ni714   1.862       .  S
O136        C139   1.269       .  A
O136       Ni138   1.862       .  S
Ni137      O1282   1.964   1_455  S
Ni137      O1284   1.862   1_455  S
Ni137      Ni138   2.378       .  S
Ni138      O1285   1.964   1_455  S
Ni138      O1287   1.862   1_455  S
C139        C188   1.480       .  S
C140        C143   1.480       .  S
C141        C156   1.480       .  S
C142        C177   1.480       .  S
C143        C144   1.407       .  A
C143        C148   1.417       .  A
C144        C145   1.407       .  A
C144        H149   1.083       .  S
C145        C146   1.417       .  A
C146        C147   1.399       .  A
C146        H150   1.083       .  S
C147        C154   1.507       .  S
C147        C148   1.399       .  A
C148        H151   1.083       .  S
C152        C153   1.417       .  A
C152        C157   1.407       .  A
C153        C154   1.399       .  A
C153        H158   1.083       .  S
C154        C155   1.399       .  A
C155        C156   1.417       .  A
C155        H159   1.083       .  S
C156        C157   1.407       .  A
C157        H160   1.083       .  S
O161        C171   1.292       .  A
O161       Ni169   1.964       .  S
O162        C172   1.292       .  A
O162       Ni169   1.964       .  S
O163        C173   1.269       .  A
O163       Ni169   1.862       .  S
O164        C174   1.269       .  A
O164       Ni169   1.862       .  S
O165        C174   1.292       .  A
O165       Ni170   1.964       .  S
O166        C173   1.292       .  A
O166       Ni170   1.964       .  S
O167        C172   1.269       .  A
O167       Ni170   1.862       .  S
O168        C171   1.269       .  A
O168       Ni170   1.862       .  S
Ni169      Ni170   2.378       .  S
C172        C175   1.480       .  S
C173        C184   1.480       .  S
C175        C176   1.407       .  A
C175        C180   1.417       .  A
C176        C177   1.407       .  A
C176        H181   1.083       .  S
C177        C178   1.417       .  A
C178        C179   1.399       .  A
C178        H182   1.083       .  S
C179        C570   1.507   1_545  S
C179        C180   1.399       .  A
C180        H183   1.083       .  S
C184        C185   1.417       .  A
C184        C189   1.407       .  A
C185        C186   1.399       .  A
C185        H190   1.083       .  S
C186        C371   1.507       .  S
C186        C187   1.399       .  A
C187        C188   1.417       .  A
C187        H191   1.083       .  S
C188        C189   1.407       .  A
C189        H192   1.083       .  S
O193        C203   1.292       .  A
O194        C204   1.292       .  A
O194       Ni201   1.964       .  S
O195        C205   1.269       .  A
O196        C206   1.269       .  A
O196       Ni297   1.862       .  S
O197        C206   1.292       .  A
O197       Ni394   1.964       .  S
O198        C205   1.292       .  A
O198       Ni298   1.964   1_554  S
O199        C204   1.269       .  A
O199       Ni490   1.862   1_554  S
O200        C203   1.269       .  A
O200       Ni202   1.862       .  S
Ni201       O481   1.964   1_554  S
Ni201       O387   1.862       .  S
Ni201       O292   1.862   1_554  S
Ni201      Ni490   2.378   1_554  S
Ni202       O294   1.964       .  S
C203        C218   1.480       .  S
C204        C248   1.480       .  S
C205        C241   1.480       .  S
C206        C211   1.480       .  S
C207        C267   1.480       .  S
C207        C208   1.417       .  A
C207        C212   1.407       .  A
C208        C209   1.399       .  A
C208        H213   1.083       .  S
C209       C1372   1.507   1_455  S
C209        C210   1.399       .  A
C210        C211   1.417       .  A
C210        H214   1.083       .  S
C211        C212   1.407       .  A
C212        H215   1.083       .  S
C216        C270   1.480       .  S
C216        C217   1.407       .  A
C216        C221   1.417       .  A
C217        C218   1.407       .  A
C217        H222   1.083       .  S
C218        C219   1.417       .  A
C219        C220   1.399       .  A
C219        H223   1.083       .  S
C220        C785   1.507       .  S
C220        C221   1.399       .  A
C221        H224   1.083       .  S
O225        C235   1.292       .  A
O225       Ni233   1.964       .  S
O226        C236   1.292       .  A
O226       Ni809   1.964       .  S
O227        C237   1.269       .  A
O227       Ni233   1.862       .  S
O228        C238   1.269       .  A
O228       Ni809   1.862       .  S
O229        C238   1.292       .  A
O229       Ni810   1.964       .  S
O230        C237   1.292       .  A
O230       Ni234   1.964       .  S
O231        C236   1.269       .  A
O231       Ni810   1.862       .  S
O232        C235   1.269       .  A
O232       Ni234   1.862       .  S
Ni233      O1378   1.964   1_455  S
Ni233      O1380   1.862   1_455  S
Ni233      Ni234   2.378       .  S
Ni234      O1381   1.964   1_455  S
Ni234      O1383   1.862   1_455  S
C235        C284   1.480       .  S
C236        C239   1.480       .  S
C237        C252   1.480       .  S
C238        C273   1.480       .  S
C239        C240   1.407       .  A
C239        C244   1.417       .  A
C240        C241   1.407       .  A
C240        H245   1.083       .  S
C241        C242   1.417       .  A
C242        C243   1.399       .  A
C242        H246   1.083       .  S
C243        C250   1.507       .  S
C243        C244   1.399       .  A
C244        H247   1.083       .  S
C248        C249   1.417       .  A
C248        C253   1.407       .  A
C249        C250   1.399       .  A
C249        H254   1.083       .  S
C250        C251   1.399       .  A
C251        C252   1.417       .  A
C251        H255   1.083       .  S
C252        C253   1.407       .  A
C253        H256   1.083       .  S
O257        C267   1.292       .  A
O257       Ni265   1.964       .  S
O258        C268   1.292       .  A
O258       Ni265   1.964       .  S
O259        C269   1.269       .  A
O259       Ni265   1.862       .  S
O260        C270   1.269       .  A
O260       Ni265   1.862       .  S
O261        C270   1.292       .  A
O261       Ni266   1.964       .  S
O262        C269   1.292       .  A
O262       Ni266   1.964       .  S
O263        C268   1.269       .  A
O263       Ni266   1.862       .  S
O264        C267   1.269       .  A
O264       Ni266   1.862       .  S
Ni265      Ni266   2.378       .  S
C268        C271   1.480       .  S
C269        C280   1.480       .  S
C271        C272   1.407       .  A
C271        C276   1.417       .  A
C272        C273   1.407       .  A
C272        H277   1.083       .  S
C273        C274   1.417       .  A
C274        C275   1.399       .  A
C274        H278   1.083       .  S
C275        C276   1.399       .  A
C276        H279   1.083       .  S
C280        C281   1.417       .  A
C280        C285   1.407       .  A
C281        C282   1.399       .  A
C281        H286   1.083       .  S
C282        C467   1.507       .  S
C282        C283   1.399       .  A
C283        C284   1.417       .  A
C283        H287   1.083       .  S
C284        C285   1.407       .  A
C285        H288   1.083       .  S
O289        C299   1.292       .  A
O290        C300   1.292       .  A
O290       Ni297   1.964       .  S
O291        C301   1.269       .  A
O292        C302   1.269       .  A
O293        C302   1.292       .  A
O293       Ni490   1.964       .  S
O294        C301   1.292       .  A
O295        C300   1.269       .  A
O295       Ni394   1.862       .  S
O296        C299   1.269       .  A
O296       Ni298   1.862       .  S
Ni297       O385   1.964       .  S
Ni297       O483   1.862       .  S
Ni297      Ni394   2.378       .  S
C299        C314   1.480       .  S
C300        C344   1.480       .  S
C301        C337   1.480       .  S
C302        C307   1.480       .  S
C303        C363   1.480       .  S
C303        C304   1.417       .  A
C303        C308   1.407       .  A
C304        C305   1.399       .  A
C304        H309   1.083       .  S
C305       C1468   1.507   1_455  S
C305        C306   1.399       .  A
C306        C307   1.417       .  A
C306        H310   1.083       .  S
C307        C308   1.407       .  A
C308        H311   1.083       .  S
C312        C366   1.480       .  S
C312        C313   1.407       .  A
C312        C317   1.417       .  A
C313        C314   1.407       .  A
C313        H318   1.083       .  S
C314        C315   1.417       .  A
C315        C316   1.399       .  A
C315        H319   1.083       .  S
C316        C881   1.507       .  S
C316        C317   1.399       .  A
C317        H320   1.083       .  S
O321        C331   1.292       .  A
O321       Ni329   1.964       .  S
O322        C332   1.292       .  A
O322       Ni905   1.964       .  S
O323        C333   1.269       .  A
O323       Ni329   1.862       .  S
O324        C334   1.269       .  A
O324       Ni905   1.862       .  S
O325        C334   1.292       .  A
O325       Ni906   1.964       .  S
O326        C333   1.292       .  A
O326       Ni330   1.964       .  S
O327        C332   1.269       .  A
O327       Ni906   1.862       .  S
O328        C331   1.269       .  A
O328       Ni330   1.862       .  S
Ni329      O1474   1.964   1_455  S
Ni329      O1476   1.862   1_455  S
Ni329      Ni330   2.378       .  S
Ni330      O1477   1.964   1_455  S
Ni330      O1479   1.862   1_455  S
C331        C380   1.480       .  S
C332        C335   1.480       .  S
C333        C348   1.480       .  S
C334        C369   1.480       .  S
C335        C336   1.407       .  A
C335        C340   1.417       .  A
C336        C337   1.407       .  A
C336        H341   1.083       .  S
C337        C338   1.417       .  A
C338        C339   1.399       .  A
C338        H342   1.083       .  S
C339        C346   1.507       .  S
C339        C340   1.399       .  A
C340        H343   1.083       .  S
C344        C345   1.417       .  A
C344        C349   1.407       .  A
C345        C346   1.399       .  A
C345        H350   1.083       .  S
C346        C347   1.399       .  A
C347        C348   1.417       .  A
C347        H351   1.083       .  S
C348        C349   1.407       .  A
C349        H352   1.083       .  S
O353        C363   1.292       .  A
O353       Ni361   1.964       .  S
O354        C364   1.292       .  A
O354       Ni361   1.964       .  S
O355        C365   1.269       .  A
O355       Ni361   1.862       .  S
O356        C366   1.269       .  A
O356       Ni361   1.862       .  S
O357        C366   1.292       .  A
O357       Ni362   1.964       .  S
O358        C365   1.292       .  A
O358       Ni362   1.964       .  S
O359        C364   1.269       .  A
O359       Ni362   1.862       .  S
O360        C363   1.269       .  A
O360       Ni362   1.862       .  S
Ni361      Ni362   2.378       .  S
C364        C367   1.480       .  S
C365        C376   1.480       .  S
C367        C368   1.407       .  A
C367        C372   1.417       .  A
C368        C369   1.407       .  A
C368        H373   1.083       .  S
C369        C370   1.417       .  A
C370        C371   1.399       .  A
C370        H374   1.083       .  S
C371        C372   1.399       .  A
C372        H375   1.083       .  S
C376        C377   1.417       .  A
C376        C381   1.407       .  A
C377        C378   1.399       .  A
C377        H382   1.083       .  S
C378        C563   1.507       .  S
C378        C379   1.399       .  A
C379        C380   1.417       .  A
C379        H383   1.083       .  S
C380        C381   1.407       .  A
C381        H384   1.083       .  S
O385        C395   1.292       .  A
O386        C396   1.292       .  A
O386       Ni393   1.964       .  S
O387        C397   1.269       .  A
O388        C398   1.269       .  A
O388       Ni489   1.862       .  S
O389        C398   1.292       .  A
O390        C397   1.292       .  A
O390       Ni490   1.964   1_554  S
O391        C396   1.269       .  A
O392        C395   1.269       .  A
O392       Ni394   1.862       .  S
Ni393       O484   1.862   1_554  S
Ni394       O486   1.964       .  S
C395        C410   1.480       .  S
C396        C440   1.480       .  S
C397        C433   1.480       .  S
C398        C403   1.480       .  S
C399        C459   1.480       .  S
C399        C400   1.417       .  A
C399        C404   1.407       .  A
C400        C401   1.399       .  A
C400        H405   1.083       .  S
C401       C1564   1.507   1_455  S
C401        C402   1.399       .  A
C402        C403   1.417       .  A
C402        H406   1.083       .  S
C403        C404   1.407       .  A
C404        H407   1.083       .  S
C408        C462   1.480       .  S
C408        C409   1.407       .  A
C408        C413   1.417       .  A
C409        C410   1.407       .  A
C409        H414   1.083       .  S
C410        C411   1.417       .  A
C411        C412   1.399       .  A
C411        H415   1.083       .  S
C412        C977   1.507       .  S
C412        C413   1.399       .  A
C413        H416   1.083       .  S
O417        C427   1.292       .  A
O417       Ni425   1.964       .  S
O418        C428   1.292       .  A
O418      Ni1001   1.964       .  S
O419        C429   1.269       .  A
O419       Ni425   1.862       .  S
O420        C430   1.269       .  A
O420      Ni1001   1.862       .  S
O421        C430   1.292       .  A
O421      Ni1002   1.964       .  S
O422        C429   1.292       .  A
O422       Ni426   1.964       .  S
O423        C428   1.269       .  A
O423      Ni1002   1.862       .  S
O424        C427   1.269       .  A
O424       Ni426   1.862       .  S
Ni425      O1570   1.964   1_455  S
Ni425      O1572   1.862   1_455  S
Ni425      Ni426   2.378       .  S
Ni426      O1573   1.964   1_455  S
Ni426      O1575   1.862   1_455  S
C427        C476   1.480       .  S
C428        C431   1.480       .  S
C429        C444   1.480       .  S
C430        C465   1.480       .  S
C431        C432   1.407       .  A
C431        C436   1.417       .  A
C432        C433   1.407       .  A
C432        H437   1.083       .  S
C433        C434   1.417       .  A
C434        C435   1.399       .  A
C434        H438   1.083       .  S
C435        C442   1.507       .  S
C435        C436   1.399       .  A
C436        H439   1.083       .  S
C440        C441   1.417       .  A
C440        C445   1.407       .  A
C441        C442   1.399       .  A
C441        H446   1.083       .  S
C442        C443   1.399       .  A
C443        C444   1.417       .  A
C443        H447   1.083       .  S
C444        C445   1.407       .  A
C445        H448   1.083       .  S
O449        C459   1.292       .  A
O449       Ni457   1.964       .  S
O450        C460   1.292       .  A
O450       Ni457   1.964       .  S
O451        C461   1.269       .  A
O451       Ni457   1.862       .  S
O452        C462   1.269       .  A
O452       Ni457   1.862       .  S
O453        C462   1.292       .  A
O453       Ni458   1.964       .  S
O454        C461   1.292       .  A
O454       Ni458   1.964       .  S
O455        C460   1.269       .  A
O455       Ni458   1.862       .  S
O456        C459   1.269       .  A
O456       Ni458   1.862       .  S
Ni457      Ni458   2.378       .  S
C460        C463   1.480       .  S
C461        C472   1.480       .  S
C463        C464   1.407       .  A
C463        C468   1.417       .  A
C464        C465   1.407       .  A
C464        H469   1.083       .  S
C465        C466   1.417       .  A
C466        C467   1.399       .  A
C466        H470   1.083       .  S
C467        C468   1.399       .  A
C468        H471   1.083       .  S
C472        C473   1.417       .  A
C472        C477   1.407       .  A
C473        C474   1.399       .  A
C473        H478   1.083       .  S
C474        C475   1.399       .  A
C475        C476   1.417       .  A
C475        H479   1.083       .  S
C476        C477   1.407       .  A
C477        H480   1.083       .  S
O481        C491   1.292       .  A
O482        C492   1.292       .  A
O482       Ni489   1.964       .  S
O483        C493   1.269       .  A
O484        C494   1.269       .  A
O485        C494   1.292       .  A
O486        C493   1.292       .  A
O487        C492   1.269       .  A
O488        C491   1.269       .  A
O488       Ni490   1.862       .  S
C491        C506   1.480       .  S
C492        C536   1.480       .  S
C493        C529   1.480       .  S
C494        C499   1.480       .  S
C495        C555   1.480       .  S
C495        C496   1.417       .  A
C495        C500   1.407       .  A
C496        C497   1.399       .  A
C496        H501   1.083       .  S
C497       C1660   1.507   1_455  S
C497        C498   1.399       .  A
C498        C499   1.417       .  A
C498        H502   1.083       .  S
C499        C500   1.407       .  A
C500        H503   1.083       .  S
C504        C558   1.480       .  S
C504        C505   1.407       .  A
C504        C509   1.417       .  A
C505        C506   1.407       .  A
C505        H510   1.083       .  S
C506        C507   1.417       .  A
C507        C508   1.399       .  A
C507        H511   1.083       .  S
C508       C1073   1.507       .  S
C508        C509   1.399       .  A
C509        H512   1.083       .  S
O513        C523   1.292       .  A
O513       Ni521   1.964       .  S
O514        C524   1.292       .  A
O514      Ni1097   1.964       .  S
O515        C525   1.269       .  A
O515       Ni521   1.862       .  S
O516        C526   1.269       .  A
O516      Ni1097   1.862       .  S
O517        C526   1.292       .  A
O517      Ni1098   1.964       .  S
O518        C525   1.292       .  A
O518       Ni522   1.964       .  S
O519        C524   1.269       .  A
O519      Ni1098   1.862       .  S
O520        C523   1.269       .  A
O520       Ni522   1.862       .  S
Ni521      O1666   1.964   1_455  S
Ni521      O1668   1.862   1_455  S
Ni521      Ni522   2.378       .  S
Ni522      O1669   1.964   1_455  S
Ni522      O1671   1.862   1_455  S
C523        C572   1.480       .  S
C524        C527   1.480       .  S
C525        C540   1.480       .  S
C526        C561   1.480       .  S
C527        C528   1.407       .  A
C527        C532   1.417       .  A
C528        C529   1.407       .  A
C528        H533   1.083       .  S
C529        C530   1.417       .  A
C530        C531   1.399       .  A
C530        H534   1.083       .  S
C531        C538   1.507       .  S
C531        C532   1.399       .  A
C532        H535   1.083       .  S
C536        C537   1.417       .  A
C536        C541   1.407       .  A
C537        C538   1.399       .  A
C537        H542   1.083       .  S
C538        C539   1.399       .  A
C539        C540   1.417       .  A
C539        H543   1.083       .  S
C540        C541   1.407       .  A
C541        H544   1.083       .  S
O545        C555   1.292       .  A
O545       Ni553   1.964       .  S
O546        C556   1.292       .  A
O546       Ni553   1.964       .  S
O547        C557   1.269       .  A
O547       Ni553   1.862       .  S
O548        C558   1.269       .  A
O548       Ni553   1.862       .  S
O549        C558   1.292       .  A
O549       Ni554   1.964       .  S
O550        C557   1.292       .  A
O550       Ni554   1.964       .  S
O551        C556   1.269       .  A
O551       Ni554   1.862       .  S
O552        C555   1.269       .  A
O552       Ni554   1.862       .  S
Ni553      Ni554   2.378       .  S
C556        C559   1.480       .  S
C557        C568   1.480       .  S
C559        C560   1.407       .  A
C559        C564   1.417       .  A
C560        C561   1.407       .  A
C560        H565   1.083       .  S
C561        C562   1.417       .  A
C562        C563   1.399       .  A
C562        H566   1.083       .  S
C563        C564   1.399       .  A
C564        H567   1.083       .  S
C568        C569   1.417       .  A
C568        C573   1.407       .  A
C569        C570   1.399       .  A
C569        H574   1.083       .  S
C570        C571   1.399       .  A
C571        C572   1.417       .  A
C571        H575   1.083       .  S
C572        C573   1.407       .  A
C573        H576   1.083       .  S
O577        C587   1.292       .  A
O577      Ni1065   1.964   1_545  S
O578        C588   1.292       .  A
O578       Ni585   1.964       .  S
O579        C589   1.269       .  A
O579       Ni969   1.862   1_545  S
O580        C590   1.269       .  A
O580       Ni681   1.862       .  S
O581        C590   1.292       .  A
O581       Ni778   1.964       .  S
O582        C589   1.292       .  A
O582       Ni682   1.964   1_554  S
O583        C588   1.269       .  A
O583       Ni874   1.862   1_554  S
O584        C587   1.269       .  A
O584       Ni586   1.862       .  S
Ni585       O865   1.964   1_554  S
Ni585       O771   1.862       .  S
Ni585       O676   1.862   1_554  S
Ni585      Ni874   2.378   1_554  S
Ni586       O965   1.964   1_545  S
Ni586       O678   1.964       .  S
Ni586      O1063   1.862   1_545  S
Ni586     Ni1065   2.378   1_545  S
C587        C602   1.480       .  S
C588        C632   1.480       .  S
C589        C625   1.480       .  S
C590        C595   1.480       .  S
C591        C651   1.480       .  S
C591        C592   1.417       .  A
C591        C596   1.407       .  A
C592        C593   1.399       .  A
C592        H597   1.083       .  S
C593        C594   1.399       .  A
C594        C595   1.417       .  A
C594        H598   1.083       .  S
C595        C596   1.407       .  A
C596        H599   1.083       .  S
C600        C654   1.480       .  S
C600        C601   1.407       .  A
C600        C605   1.417       .  A
C601        C602   1.407       .  A
C601        H606   1.083       .  S
C602        C603   1.417       .  A
C603        C604   1.399       .  A
C603        H607   1.083       .  S
C604       C1169   1.507       .  S
C604        C605   1.399       .  A
C605        H608   1.083       .  S
O609        C619   1.292       .  A
O609       Ni617   1.964       .  S
O610        C620   1.292       .  A
O610      Ni1193   1.964       .  S
O611        C621   1.269       .  A
O611       Ni617   1.862       .  S
O612        C622   1.269       .  A
O612      Ni1193   1.862       .  S
O613        C622   1.292       .  A
O613      Ni1194   1.964       .  S
O614        C621   1.292       .  A
O614       Ni618   1.964       .  S
O615        C620   1.269       .  A
O615      Ni1194   1.862       .  S
O616        C619   1.269       .  A
O616       Ni618   1.862       .  S
Ni617      Ni618   2.378       .  S
C619        C668   1.480       .  S
C620        C623   1.480       .  S
C621        C636   1.480       .  S
C622        C657   1.480       .  S
C623        C624   1.407       .  A
C623        C628   1.417       .  A
C624        C625   1.407       .  A
C624        H629   1.083       .  S
C625        C626   1.417       .  A
C626        C627   1.399       .  A
C626        H630   1.083       .  S
C627        C634   1.507       .  S
C627        C628   1.399       .  A
C628        H631   1.083       .  S
C632        C633   1.417       .  A
C632        C637   1.407       .  A
C633        C634   1.399       .  A
C633        H638   1.083       .  S
C634        C635   1.399       .  A
C635        C636   1.417       .  A
C635        H639   1.083       .  S
C636        C637   1.407       .  A
C637        H640   1.083       .  S
O641        C651   1.292       .  A
O641       Ni649   1.964       .  S
O642        C652   1.292       .  A
O642       Ni649   1.964       .  S
O643        C653   1.269       .  A
O643       Ni649   1.862       .  S
O644        C654   1.269       .  A
O644       Ni649   1.862       .  S
O645        C654   1.292       .  A
O645       Ni650   1.964       .  S
O646        C653   1.292       .  A
O646       Ni650   1.964       .  S
O647        C652   1.269       .  A
O647       Ni650   1.862       .  S
O648        C651   1.269       .  A
O648       Ni650   1.862       .  S
Ni649      Ni650   2.378       .  S
C652        C655   1.480       .  S
C653        C664   1.480       .  S
C655        C656   1.407       .  A
C655        C660   1.417       .  A
C656        C657   1.407       .  A
C656        H661   1.083       .  S
C657        C658   1.417       .  A
C658        C659   1.399       .  A
C658        H662   1.083       .  S
C659       C1050   1.507   1_545  S
C659        C660   1.399       .  A
C660        H663   1.083       .  S
C664        C665   1.417       .  A
C664        C669   1.407       .  A
C665        C666   1.399       .  A
C665        H670   1.083       .  S
C666        C851   1.507       .  S
C666        C667   1.399       .  A
C667        C668   1.417       .  A
C667        H671   1.083       .  S
C668        C669   1.407       .  A
C669        H672   1.083       .  S
O673        C683   1.292       .  A
O673       Ni969   1.964   1_546  S
O674        C684   1.292       .  A
O674       Ni681   1.964       .  S
O675        C685   1.269       .  A
O675      Ni1065   1.862   1_545  S
O676        C686   1.269       .  A
O677        C686   1.292       .  A
O677       Ni874   1.964       .  S
O678        C685   1.292       .  A
O679        C684   1.269       .  A
O679       Ni778   1.862       .  S
O680        C683   1.269       .  A
O680       Ni682   1.862       .  S
Ni681       O769   1.964       .  S
Ni681       O867   1.862       .  S
Ni681      Ni778   2.378       .  S
Ni682      O1061   1.964   1_545  S
Ni682       O967   1.862   1_546  S
Ni682      Ni969   2.378   1_546  S
C683        C698   1.480       .  S
C684        C728   1.480       .  S
C685        C721   1.480       .  S
C686        C691   1.480       .  S
C687        C747   1.480       .  S
C687        C688   1.417       .  A
C687        C692   1.407       .  A
C688        C689   1.399       .  A
C688        H693   1.083       .  S
C689        C690   1.399       .  A
C690        C691   1.417       .  A
C690        H694   1.083       .  S
C691        C692   1.407       .  A
C692        H695   1.083       .  S
C696        C750   1.480       .  S
C696        C697   1.407       .  A
C696        C701   1.417       .  A
C697        C698   1.407       .  A
C697        H702   1.083       .  S
C698        C699   1.417       .  A
C699        C700   1.399       .  A
C699        H703   1.083       .  S
C700       C1265   1.507       .  S
C700        C701   1.399       .  A
C701        H704   1.083       .  S
O705        C715   1.292       .  A
O705       Ni713   1.964       .  S
O706        C716   1.292       .  A
O706      Ni1289   1.964       .  S
O707        C717   1.269       .  A
O707       Ni713   1.862       .  S
O708        C718   1.269       .  A
O708      Ni1289   1.862       .  S
O709        C718   1.292       .  A
O709      Ni1290   1.964       .  S
O710        C717   1.292       .  A
O710       Ni714   1.964       .  S
O711        C716   1.269       .  A
O711      Ni1290   1.862       .  S
O712        C715   1.269       .  A
O712       Ni714   1.862       .  S
Ni713      Ni714   2.378       .  S
C715        C764   1.480       .  S
C716        C719   1.480       .  S
C717        C732   1.480       .  S
C718        C753   1.480       .  S
C719        C720   1.407       .  A
C719        C724   1.417       .  A
C720        C721   1.407       .  A
C720        H725   1.083       .  S
C721        C722   1.417       .  A
C722        C723   1.399       .  A
C722        H726   1.083       .  S
C723        C730   1.507       .  S
C723        C724   1.399       .  A
C724        H727   1.083       .  S
C728        C729   1.417       .  A
C728        C733   1.407       .  A
C729        C730   1.399       .  A
C729        H734   1.083       .  S
C730        C731   1.399       .  A
C731        C732   1.417       .  A
C731        H735   1.083       .  S
C732        C733   1.407       .  A
C733        H736   1.083       .  S
O737        C747   1.292       .  A
O737       Ni745   1.964       .  S
O738        C748   1.292       .  A
O738       Ni745   1.964       .  S
O739        C749   1.269       .  A
O739       Ni745   1.862       .  S
O740        C750   1.269       .  A
O740       Ni745   1.862       .  S
O741        C750   1.292       .  A
O741       Ni746   1.964       .  S
O742        C749   1.292       .  A
O742       Ni746   1.964       .  S
O743        C748   1.269       .  A
O743       Ni746   1.862       .  S
O744        C747   1.269       .  A
O744       Ni746   1.862       .  S
Ni745      Ni746   2.378       .  S
C748        C751   1.480       .  S
C749        C760   1.480       .  S
C751        C752   1.407       .  A
C751        C756   1.417       .  A
C752        C753   1.407       .  A
C752        H757   1.083       .  S
C753        C754   1.417       .  A
C754        C755   1.399       .  A
C754        H758   1.083       .  S
C755       C1146   1.507   1_545  S
C755        C756   1.399       .  A
C756        H759   1.083       .  S
C760        C761   1.417       .  A
C760        C765   1.407       .  A
C761        C762   1.399       .  A
C761        H766   1.083       .  S
C762        C947   1.507       .  S
C762        C763   1.399       .  A
C763        C764   1.417       .  A
C763        H767   1.083       .  S
C764        C765   1.407       .  A
C765        H768   1.083       .  S
O769        C779   1.292       .  A
O770        C780   1.292       .  A
O770       Ni777   1.964       .  S
O771        C781   1.269       .  A
O772        C782   1.269       .  A
O772       Ni873   1.862       .  S
O773        C782   1.292       .  A
O773       Ni970   1.964       .  S
O774        C781   1.292       .  A
O774       Ni874   1.964   1_554  S
O775        C780   1.269       .  A
O775      Ni1066   1.862   1_554  S
O776        C779   1.269       .  A
O776       Ni778   1.862       .  S
Ni777      O1057   1.964   1_554  S
Ni777       O963   1.862       .  S
Ni777       O868   1.862   1_554  S
Ni777     Ni1066   2.378   1_554  S
Ni778       O870   1.964       .  S
C779        C794   1.480       .  S
C780        C824   1.480       .  S
C781        C817   1.480       .  S
C782        C787   1.480       .  S
C783        C843   1.480       .  S
C783        C784   1.417       .  A
C783        C788   1.407       .  A
C784        C785   1.399       .  A
C784        H789   1.083       .  S
C785        C786   1.399       .  A
C786        C787   1.417       .  A
C786        H790   1.083       .  S
C787        C788   1.407       .  A
C788        H791   1.083       .  S
C792        C846   1.480       .  S
C792        C793   1.407       .  A
C792        C797   1.417       .  A
C793        C794   1.407       .  A
C793        H798   1.083       .  S
C794        C795   1.417       .  A
C795        C796   1.399       .  A
C795        H799   1.083       .  S
C796       C1361   1.507       .  S
C796        C797   1.399       .  A
C797        H800   1.083       .  S
O801        C811   1.292       .  A
O801       Ni809   1.964       .  S
O802        C812   1.292       .  A
O802      Ni1385   1.964       .  S
O803        C813   1.269       .  A
O803       Ni809   1.862       .  S
O804        C814   1.269       .  A
O804      Ni1385   1.862       .  S
O805        C814   1.292       .  A
O805      Ni1386   1.964       .  S
O806        C813   1.292       .  A
O806       Ni810   1.964       .  S
O807        C812   1.269       .  A
O807      Ni1386   1.862       .  S
O808        C811   1.269       .  A
O808       Ni810   1.862       .  S
Ni809      Ni810   2.378       .  S
C811        C860   1.480       .  S
C812        C815   1.480       .  S
C813        C828   1.480       .  S
C814        C849   1.480       .  S
C815        C816   1.407       .  A
C815        C820   1.417       .  A
C816        C817   1.407       .  A
C816        H821   1.083       .  S
C817        C818   1.417       .  A
C818        C819   1.399       .  A
C818        H822   1.083       .  S
C819        C826   1.507       .  S
C819        C820   1.399       .  A
C820        H823   1.083       .  S
C824        C825   1.417       .  A
C824        C829   1.407       .  A
C825        C826   1.399       .  A
C825        H830   1.083       .  S
C826        C827   1.399       .  A
C827        C828   1.417       .  A
C827        H831   1.083       .  S
C828        C829   1.407       .  A
C829        H832   1.083       .  S
O833        C843   1.292       .  A
O833       Ni841   1.964       .  S
O834        C844   1.292       .  A
O834       Ni841   1.964       .  S
O835        C845   1.269       .  A
O835       Ni841   1.862       .  S
O836        C846   1.269       .  A
O836       Ni841   1.862       .  S
O837        C846   1.292       .  A
O837       Ni842   1.964       .  S
O838        C845   1.292       .  A
O838       Ni842   1.964       .  S
O839        C844   1.269       .  A
O839       Ni842   1.862       .  S
O840        C843   1.269       .  A
O840       Ni842   1.862       .  S
Ni841      Ni842   2.378       .  S
C844        C847   1.480       .  S
C845        C856   1.480       .  S
C847        C848   1.407       .  A
C847        C852   1.417       .  A
C848        C849   1.407       .  A
C848        H853   1.083       .  S
C849        C850   1.417       .  A
C850        C851   1.399       .  A
C850        H854   1.083       .  S
C851        C852   1.399       .  A
C852        H855   1.083       .  S
C856        C857   1.417       .  A
C856        C861   1.407       .  A
C857        C858   1.399       .  A
C857        H862   1.083       .  S
C858       C1043   1.507       .  S
C858        C859   1.399       .  A
C859        C860   1.417       .  A
C859        H863   1.083       .  S
C860        C861   1.407       .  A
C861        H864   1.083       .  S
O865        C875   1.292       .  A
O866        C876   1.292       .  A
O866       Ni873   1.964       .  S
O867        C877   1.269       .  A
O868        C878   1.269       .  A
O869        C878   1.292       .  A
O869      Ni1066   1.964       .  S
O870        C877   1.292       .  A
O871        C876   1.269       .  A
O871       Ni970   1.862       .  S
O872        C875   1.269       .  A
O872       Ni874   1.862       .  S
Ni873       O961   1.964       .  S
Ni873      O1059   1.862       .  S
Ni873      Ni970   2.378       .  S
C875        C890   1.480       .  S
C876        C920   1.480       .  S
C877        C913   1.480       .  S
C878        C883   1.480       .  S
C879        C939   1.480       .  S
C879        C880   1.417       .  A
C879        C884   1.407       .  A
C880        C881   1.399       .  A
C880        H885   1.083       .  S
C881        C882   1.399       .  A
C882        C883   1.417       .  A
C882        H886   1.083       .  S
C883        C884   1.407       .  A
C884        H887   1.083       .  S
C888        C942   1.480       .  S
C888        C889   1.407       .  A
C888        C893   1.417       .  A
C889        C890   1.407       .  A
C889        H894   1.083       .  S
C890        C891   1.417       .  A
C891        C892   1.399       .  A
C891        H895   1.083       .  S
C892       C1457   1.507       .  S
C892        C893   1.399       .  A
C893        H896   1.083       .  S
O897        C907   1.292       .  A
O897       Ni905   1.964       .  S
O898        C908   1.292       .  A
O898      Ni1481   1.964       .  S
O899        C909   1.269       .  A
O899       Ni905   1.862       .  S
O900        C910   1.269       .  A
O900      Ni1481   1.862       .  S
O901        C910   1.292       .  A
O901      Ni1482   1.964       .  S
O902        C909   1.292       .  A
O902       Ni906   1.964       .  S
O903        C908   1.269       .  A
O903      Ni1482   1.862       .  S
O904        C907   1.269       .  A
O904       Ni906   1.862       .  S
Ni905      Ni906   2.378       .  S
C907        C956   1.480       .  S
C908        C911   1.480       .  S
C909        C924   1.480       .  S
C910        C945   1.480       .  S
C911        C912   1.407       .  A
C911        C916   1.417       .  A
C912        C913   1.407       .  A
C912        H917   1.083       .  S
C913        C914   1.417       .  A
C914        C915   1.399       .  A
C914        H918   1.083       .  S
C915        C922   1.507       .  S
C915        C916   1.399       .  A
C916        H919   1.083       .  S
C920        C921   1.417       .  A
C920        C925   1.407       .  A
C921        C922   1.399       .  A
C921        H926   1.083       .  S
C922        C923   1.399       .  A
C923        C924   1.417       .  A
C923        H927   1.083       .  S
C924        C925   1.407       .  A
C925        H928   1.083       .  S
O929        C939   1.292       .  A
O929       Ni937   1.964       .  S
O930        C940   1.292       .  A
O930       Ni937   1.964       .  S
O931        C941   1.269       .  A
O931       Ni937   1.862       .  S
O932        C942   1.269       .  A
O932       Ni937   1.862       .  S
O933        C942   1.292       .  A
O933       Ni938   1.964       .  S
O934        C941   1.292       .  A
O934       Ni938   1.964       .  S
O935        C940   1.269       .  A
O935       Ni938   1.862       .  S
O936        C939   1.269       .  A
O936       Ni938   1.862       .  S
Ni937      Ni938   2.378       .  S
C940        C943   1.480       .  S
C941        C952   1.480       .  S
C943        C944   1.407       .  A
C943        C948   1.417       .  A
C944        C945   1.407       .  A
C944        H949   1.083       .  S
C945        C946   1.417       .  A
C946        C947   1.399       .  A
C946        H950   1.083       .  S
C947        C948   1.399       .  A
C948        H951   1.083       .  S
C952        C953   1.417       .  A
C952        C957   1.407       .  A
C953        C954   1.399       .  A
C953        H958   1.083       .  S
C954       C1139   1.507       .  S
C954        C955   1.399       .  A
C955        C956   1.417       .  A
C955        H959   1.083       .  S
C956        C957   1.407       .  A
C957        H960   1.083       .  S
O961        C971   1.292       .  A
O962        C972   1.292       .  A
O962       Ni969   1.964       .  S
O963        C973   1.269       .  A
O964        C974   1.269       .  A
O964      Ni1065   1.862       .  S
O965        C974   1.292       .  A
O966        C973   1.292       .  A
O966      Ni1066   1.964   1_554  S
O967        C972   1.269       .  A
O968        C971   1.269       .  A
O968       Ni970   1.862       .  S
Ni969      O1060   1.862   1_554  S
Ni970      O1062   1.964       .  S
C971        C986   1.480       .  S
C972       C1016   1.480       .  S
C973       C1009   1.480       .  S
C974        C979   1.480       .  S
C975       C1035   1.480       .  S
C975        C976   1.417       .  A
C975        C980   1.407       .  A
C976        C977   1.399       .  A
C976        H981   1.083       .  S
C977        C978   1.399       .  A
C978        C979   1.417       .  A
C978        H982   1.083       .  S
C979        C980   1.407       .  A
C980        H983   1.083       .  S
C984       C1038   1.480       .  S
C984        C985   1.407       .  A
C984        C989   1.417       .  A
C985        C986   1.407       .  A
C985        H990   1.083       .  S
C986        C987   1.417       .  A
C987        C988   1.399       .  A
C987        H991   1.083       .  S
C988       C1553   1.507       .  S
C988        C989   1.399       .  A
C989        H992   1.083       .  S
O993       C1003   1.292       .  A
O993      Ni1001   1.964       .  S
O994       C1004   1.292       .  A
O994      Ni1577   1.964       .  S
O995       C1005   1.269       .  A
O995      Ni1001   1.862       .  S
O996       C1006   1.269       .  A
O996      Ni1577   1.862       .  S
O997       C1006   1.292       .  A
O997      Ni1578   1.964       .  S
O998       C1005   1.292       .  A
O998      Ni1002   1.964       .  S
O999       C1004   1.269       .  A
O999      Ni1578   1.862       .  S
O1000      C1003   1.269       .  A
O1000     Ni1002   1.862       .  S
Ni1001    Ni1002   2.378       .  S
C1003      C1052   1.480       .  S
C1004      C1007   1.480       .  S
C1005      C1020   1.480       .  S
C1006      C1041   1.480       .  S
C1007      C1008   1.407       .  A
C1007      C1012   1.417       .  A
C1008      C1009   1.407       .  A
C1008      H1013   1.083       .  S
C1009      C1010   1.417       .  A
C1010      C1011   1.399       .  A
C1010      H1014   1.083       .  S
C1011      C1018   1.507       .  S
C1011      C1012   1.399       .  A
C1012      H1015   1.083       .  S
C1016      C1017   1.417       .  A
C1016      C1021   1.407       .  A
C1017      C1018   1.399       .  A
C1017      H1022   1.083       .  S
C1018      C1019   1.399       .  A
C1019      C1020   1.417       .  A
C1019      H1023   1.083       .  S
C1020      C1021   1.407       .  A
C1021      H1024   1.083       .  S
O1025      C1035   1.292       .  A
O1025     Ni1033   1.964       .  S
O1026      C1036   1.292       .  A
O1026     Ni1033   1.964       .  S
O1027      C1037   1.269       .  A
O1027     Ni1033   1.862       .  S
O1028      C1038   1.269       .  A
O1028     Ni1033   1.862       .  S
O1029      C1038   1.292       .  A
O1029     Ni1034   1.964       .  S
O1030      C1037   1.292       .  A
O1030     Ni1034   1.964       .  S
O1031      C1036   1.269       .  A
O1031     Ni1034   1.862       .  S
O1032      C1035   1.269       .  A
O1032     Ni1034   1.862       .  S
Ni1033    Ni1034   2.378       .  S
C1036      C1039   1.480       .  S
C1037      C1048   1.480       .  S
C1039      C1040   1.407       .  A
C1039      C1044   1.417       .  A
C1040      C1041   1.407       .  A
C1040      H1045   1.083       .  S
C1041      C1042   1.417       .  A
C1042      C1043   1.399       .  A
C1042      H1046   1.083       .  S
C1043      C1044   1.399       .  A
C1044      H1047   1.083       .  S
C1048      C1049   1.417       .  A
C1048      C1053   1.407       .  A
C1049      C1050   1.399       .  A
C1049      H1054   1.083       .  S
C1050      C1051   1.399       .  A
C1051      C1052   1.417       .  A
C1051      H1055   1.083       .  S
C1052      C1053   1.407       .  A
C1053      H1056   1.083       .  S
O1057      C1067   1.292       .  A
O1058      C1068   1.292       .  A
O1058     Ni1065   1.964       .  S
O1059      C1069   1.269       .  A
O1060      C1070   1.269       .  A
O1061      C1070   1.292       .  A
O1062      C1069   1.292       .  A
O1063      C1068   1.269       .  A
O1064      C1067   1.269       .  A
O1064     Ni1066   1.862       .  S
C1067      C1082   1.480       .  S
C1068      C1112   1.480       .  S
C1069      C1105   1.480       .  S
C1070      C1075   1.480       .  S
C1071      C1131   1.480       .  S
C1071      C1072   1.417       .  A
C1071      C1076   1.407       .  A
C1072      C1073   1.399       .  A
C1072      H1077   1.083       .  S
C1073      C1074   1.399       .  A
C1074      C1075   1.417       .  A
C1074      H1078   1.083       .  S
C1075      C1076   1.407       .  A
C1076      H1079   1.083       .  S
C1080      C1134   1.480       .  S
C1080      C1081   1.407       .  A
C1080      C1085   1.417       .  A
C1081      C1082   1.407       .  A
C1081      H1086   1.083       .  S
C1082      C1083   1.417       .  A
C1083      C1084   1.399       .  A
C1083      H1087   1.083       .  S
C1084      C1649   1.507       .  S
C1084      C1085   1.399       .  A
C1085      H1088   1.083       .  S
O1089      C1099   1.292       .  A
O1089     Ni1097   1.964       .  S
O1090      C1100   1.292       .  A
O1090     Ni1673   1.964       .  S
O1091      C1101   1.269       .  A
O1091     Ni1097   1.862       .  S
O1092      C1102   1.269       .  A
O1092     Ni1673   1.862       .  S
O1093      C1102   1.292       .  A
O1093     Ni1674   1.964       .  S
O1094      C1101   1.292       .  A
O1094     Ni1098   1.964       .  S
O1095      C1100   1.269       .  A
O1095     Ni1674   1.862       .  S
O1096      C1099   1.269       .  A
O1096     Ni1098   1.862       .  S
Ni1097    Ni1098   2.378       .  S
C1099      C1148   1.480       .  S
C1100      C1103   1.480       .  S
C1101      C1116   1.480       .  S
C1102      C1137   1.480       .  S
C1103      C1104   1.407       .  A
C1103      C1108   1.417       .  A
C1104      C1105   1.407       .  A
C1104      H1109   1.083       .  S
C1105      C1106   1.417       .  A
C1106      C1107   1.399       .  A
C1106      H1110   1.083       .  S
C1107      C1114   1.507       .  S
C1107      C1108   1.399       .  A
C1108      H1111   1.083       .  S
C1112      C1113   1.417       .  A
C1112      C1117   1.407       .  A
C1113      C1114   1.399       .  A
C1113      H1118   1.083       .  S
C1114      C1115   1.399       .  A
C1115      C1116   1.417       .  A
C1115      H1119   1.083       .  S
C1116      C1117   1.407       .  A
C1117      H1120   1.083       .  S
O1121      C1131   1.292       .  A
O1121     Ni1129   1.964       .  S
O1122      C1132   1.292       .  A
O1122     Ni1129   1.964       .  S
O1123      C1133   1.269       .  A
O1123     Ni1129   1.862       .  S
O1124      C1134   1.269       .  A
O1124     Ni1129   1.862       .  S
O1125      C1134   1.292       .  A
O1125     Ni1130   1.964       .  S
O1126      C1133   1.292       .  A
O1126     Ni1130   1.964       .  S
O1127      C1132   1.269       .  A
O1127     Ni1130   1.862       .  S
O1128      C1131   1.269       .  A
O1128     Ni1130   1.862       .  S
Ni1129    Ni1130   2.378       .  S
C1132      C1135   1.480       .  S
C1133      C1144   1.480       .  S
C1135      C1136   1.407       .  A
C1135      C1140   1.417       .  A
C1136      C1137   1.407       .  A
C1136      H1141   1.083       .  S
C1137      C1138   1.417       .  A
C1138      C1139   1.399       .  A
C1138      H1142   1.083       .  S
C1139      C1140   1.399       .  A
C1140      H1143   1.083       .  S
C1144      C1145   1.417       .  A
C1144      C1149   1.407       .  A
C1145      C1146   1.399       .  A
C1145      H1150   1.083       .  S
C1146      C1147   1.399       .  A
C1147      C1148   1.417       .  A
C1147      H1151   1.083       .  S
C1148      C1149   1.407       .  A
C1149      H1152   1.083       .  S
O1153      C1163   1.292       .  A
O1153     Ni1641   1.964   1_545  S
O1154      C1164   1.292       .  A
O1154     Ni1161   1.964       .  S
O1155      C1165   1.269       .  A
O1155     Ni1545   1.862   1_545  S
O1156      C1166   1.269       .  A
O1156     Ni1257   1.862       .  S
O1157      C1166   1.292       .  A
O1157     Ni1354   1.964       .  S
O1158      C1165   1.292       .  A
O1158     Ni1258   1.964   1_554  S
O1159      C1164   1.269       .  A
O1159     Ni1450   1.862   1_554  S
O1160      C1163   1.269       .  A
O1160     Ni1162   1.862       .  S
Ni1161     O1441   1.964   1_554  S
Ni1161     O1347   1.862       .  S
Ni1161     O1252   1.862   1_554  S
Ni1161    Ni1450   2.378   1_554  S
Ni1162     O1541   1.964   1_545  S
Ni1162     O1254   1.964       .  S
Ni1162     O1639   1.862   1_545  S
Ni1162    Ni1641   2.378   1_545  S
C1163      C1178   1.480       .  S
C1164      C1208   1.480       .  S
C1165      C1201   1.480       .  S
C1166      C1171   1.480       .  S
C1167      C1227   1.480       .  S
C1167      C1168   1.417       .  A
C1167      C1172   1.407       .  A
C1168      C1169   1.399       .  A
C1168      H1173   1.083       .  S
C1169      C1170   1.399       .  A
C1170      C1171   1.417       .  A
C1170      H1174   1.083       .  S
C1171      C1172   1.407       .  A
C1172      H1175   1.083       .  S
C1176      C1230   1.480       .  S
C1176      C1177   1.407       .  A
C1176      C1181   1.417       .  A
C1177      C1178   1.407       .  A
C1177      H1182   1.083       .  S
C1178      C1179   1.417       .  A
C1179      C1180   1.399       .  A
C1179      H1183   1.083       .  S
C1180      C1181   1.399       .  A
C1181      H1184   1.083       .  S
O1185      C1195   1.292       .  A
O1185     Ni1193   1.964       .  S
O1186      C1196   1.292       .  A
O1187      C1197   1.269       .  A
O1187     Ni1193   1.862       .  S
O1188      C1198   1.269       .  A
O1189      C1198   1.292       .  A
O1190      C1197   1.292       .  A
O1190     Ni1194   1.964       .  S
O1191      C1196   1.269       .  A
O1192      C1195   1.269       .  A
O1192     Ni1194   1.862       .  S
Ni1193    Ni1194   2.378       .  S
C1195      C1244   1.480       .  S
C1196      C1199   1.480       .  S
C1197      C1212   1.480       .  S
C1198      C1233   1.480       .  S
C1199      C1200   1.407       .  A
C1199      C1204   1.417       .  A
C1200      C1201   1.407       .  A
C1200      H1205   1.083       .  S
C1201      C1202   1.417       .  A
C1202      C1203   1.399       .  A
C1202      H1206   1.083       .  S
C1203      C1210   1.507       .  S
C1203      C1204   1.399       .  A
C1204      H1207   1.083       .  S
C1208      C1209   1.417       .  A
C1208      C1213   1.407       .  A
C1209      C1210   1.399       .  A
C1209      H1214   1.083       .  S
C1210      C1211   1.399       .  A
C1211      C1212   1.417       .  A
C1211      H1215   1.083       .  S
C1212      C1213   1.407       .  A
C1213      H1216   1.083       .  S
O1217      C1227   1.292       .  A
O1217     Ni1225   1.964       .  S
O1218      C1228   1.292       .  A
O1218     Ni1225   1.964       .  S
O1219      C1229   1.269       .  A
O1219     Ni1225   1.862       .  S
O1220      C1230   1.269       .  A
O1220     Ni1225   1.862       .  S
O1221      C1230   1.292       .  A
O1221     Ni1226   1.964       .  S
O1222      C1229   1.292       .  A
O1222     Ni1226   1.964       .  S
O1223      C1228   1.269       .  A
O1223     Ni1226   1.862       .  S
O1224      C1227   1.269       .  A
O1224     Ni1226   1.862       .  S
Ni1225    Ni1226   2.378       .  S
C1228      C1231   1.480       .  S
C1229      C1240   1.480       .  S
C1231      C1232   1.407       .  A
C1231      C1236   1.417       .  A
C1232      C1233   1.407       .  A
C1232      H1237   1.083       .  S
C1233      C1234   1.417       .  A
C1234      C1235   1.399       .  A
C1234      H1238   1.083       .  S
C1235      C1626   1.507   1_545  S
C1235      C1236   1.399       .  A
C1236      H1239   1.083       .  S
C1240      C1241   1.417       .  A
C1240      C1245   1.407       .  A
C1241      C1242   1.399       .  A
C1241      H1246   1.083       .  S
C1242      C1427   1.507       .  S
C1242      C1243   1.399       .  A
C1243      C1244   1.417       .  A
C1243      H1247   1.083       .  S
C1244      C1245   1.407       .  A
C1245      H1248   1.083       .  S
O1249      C1259   1.292       .  A
O1249     Ni1545   1.964   1_546  S
O1250      C1260   1.292       .  A
O1250     Ni1257   1.964       .  S
O1251      C1261   1.269       .  A
O1251     Ni1641   1.862   1_545  S
O1252      C1262   1.269       .  A
O1253      C1262   1.292       .  A
O1253     Ni1450   1.964       .  S
O1254      C1261   1.292       .  A
O1255      C1260   1.269       .  A
O1255     Ni1354   1.862       .  S
O1256      C1259   1.269       .  A
O1256     Ni1258   1.862       .  S
Ni1257     O1345   1.964       .  S
Ni1257     O1443   1.862       .  S
Ni1257    Ni1354   2.378       .  S
Ni1258     O1637   1.964   1_545  S
Ni1258     O1543   1.862   1_546  S
Ni1258    Ni1545   2.378   1_546  S
C1259      C1274   1.480       .  S
C1260      C1304   1.480       .  S
C1261      C1297   1.480       .  S
C1262      C1267   1.480       .  S
C1263      C1323   1.480       .  S
C1263      C1264   1.417       .  A
C1263      C1268   1.407       .  A
C1264      C1265   1.399       .  A
C1264      H1269   1.083       .  S
C1265      C1266   1.399       .  A
C1266      C1267   1.417       .  A
C1266      H1270   1.083       .  S
C1267      C1268   1.407       .  A
C1268      H1271   1.083       .  S
C1272      C1326   1.480       .  S
C1272      C1273   1.407       .  A
C1272      C1277   1.417       .  A
C1273      C1274   1.407       .  A
C1273      H1278   1.083       .  S
C1274      C1275   1.417       .  A
C1275      C1276   1.399       .  A
C1275      H1279   1.083       .  S
C1276      C1277   1.399       .  A
C1277      H1280   1.083       .  S
O1281      C1291   1.292       .  A
O1281     Ni1289   1.964       .  S
O1282      C1292   1.292       .  A
O1283      C1293   1.269       .  A
O1283     Ni1289   1.862       .  S
O1284      C1294   1.269       .  A
O1285      C1294   1.292       .  A
O1286      C1293   1.292       .  A
O1286     Ni1290   1.964       .  S
O1287      C1292   1.269       .  A
O1288      C1291   1.269       .  A
O1288     Ni1290   1.862       .  S
Ni1289    Ni1290   2.378       .  S
C1291      C1340   1.480       .  S
C1292      C1295   1.480       .  S
C1293      C1308   1.480       .  S
C1294      C1329   1.480       .  S
C1295      C1296   1.407       .  A
C1295      C1300   1.417       .  A
C1296      C1297   1.407       .  A
C1296      H1301   1.083       .  S
C1297      C1298   1.417       .  A
C1298      C1299   1.399       .  A
C1298      H1302   1.083       .  S
C1299      C1306   1.507       .  S
C1299      C1300   1.399       .  A
C1300      H1303   1.083       .  S
C1304      C1305   1.417       .  A
C1304      C1309   1.407       .  A
C1305      C1306   1.399       .  A
C1305      H1310   1.083       .  S
C1306      C1307   1.399       .  A
C1307      C1308   1.417       .  A
C1307      H1311   1.083       .  S
C1308      C1309   1.407       .  A
C1309      H1312   1.083       .  S
O1313      C1323   1.292       .  A
O1313     Ni1321   1.964       .  S
O1314      C1324   1.292       .  A
O1314     Ni1321   1.964       .  S
O1315      C1325   1.269       .  A
O1315     Ni1321   1.862       .  S
O1316      C1326   1.269       .  A
O1316     Ni1321   1.862       .  S
O1317      C1326   1.292       .  A
O1317     Ni1322   1.964       .  S
O1318      C1325   1.292       .  A
O1318     Ni1322   1.964       .  S
O1319      C1324   1.269       .  A
O1319     Ni1322   1.862       .  S
O1320      C1323   1.269       .  A
O1320     Ni1322   1.862       .  S
Ni1321    Ni1322   2.378       .  S
C1324      C1327   1.480       .  S
C1325      C1336   1.480       .  S
C1327      C1328   1.407       .  A
C1327      C1332   1.417       .  A
C1328      C1329   1.407       .  A
C1328      H1333   1.083       .  S
C1329      C1330   1.417       .  A
C1330      C1331   1.399       .  A
C1330      H1334   1.083       .  S
C1331      C1722   1.507   1_545  S
C1331      C1332   1.399       .  A
C1332      H1335   1.083       .  S
C1336      C1337   1.417       .  A
C1336      C1341   1.407       .  A
C1337      C1338   1.399       .  A
C1337      H1342   1.083       .  S
C1338      C1523   1.507       .  S
C1338      C1339   1.399       .  A
C1339      C1340   1.417       .  A
C1339      H1343   1.083       .  S
C1340      C1341   1.407       .  A
C1341      H1344   1.083       .  S
O1345      C1355   1.292       .  A
O1346      C1356   1.292       .  A
O1346     Ni1353   1.964       .  S
O1347      C1357   1.269       .  A
O1348      C1358   1.269       .  A
O1348     Ni1449   1.862       .  S
O1349      C1358   1.292       .  A
O1349     Ni1546   1.964       .  S
O1350      C1357   1.292       .  A
O1350     Ni1450   1.964   1_554  S
O1351      C1356   1.269       .  A
O1351     Ni1642   1.862   1_554  S
O1352      C1355   1.269       .  A
O1352     Ni1354   1.862       .  S
Ni1353     O1633   1.964   1_554  S
Ni1353     O1539   1.862       .  S
Ni1353     O1444   1.862   1_554  S
Ni1353    Ni1642   2.378   1_554  S
Ni1354     O1446   1.964       .  S
C1355      C1370   1.480       .  S
C1356      C1400   1.480       .  S
C1357      C1393   1.480       .  S
C1358      C1363   1.480       .  S
C1359      C1419   1.480       .  S
C1359      C1360   1.417       .  A
C1359      C1364   1.407       .  A
C1360      C1361   1.399       .  A
C1360      H1365   1.083       .  S
C1361      C1362   1.399       .  A
C1362      C1363   1.417       .  A
C1362      H1366   1.083       .  S
C1363      C1364   1.407       .  A
C1364      H1367   1.083       .  S
C1368      C1422   1.480       .  S
C1368      C1369   1.407       .  A
C1368      C1373   1.417       .  A
C1369      C1370   1.407       .  A
C1369      H1374   1.083       .  S
C1370      C1371   1.417       .  A
C1371      C1372   1.399       .  A
C1371      H1375   1.083       .  S
C1372      C1373   1.399       .  A
C1373      H1376   1.083       .  S
O1377      C1387   1.292       .  A
O1377     Ni1385   1.964       .  S
O1378      C1388   1.292       .  A
O1379      C1389   1.269       .  A
O1379     Ni1385   1.862       .  S
O1380      C1390   1.269       .  A
O1381      C1390   1.292       .  A
O1382      C1389   1.292       .  A
O1382     Ni1386   1.964       .  S
O1383      C1388   1.269       .  A
O1384      C1387   1.269       .  A
O1384     Ni1386   1.862       .  S
Ni1385    Ni1386   2.378       .  S
C1387      C1436   1.480       .  S
C1388      C1391   1.480       .  S
C1389      C1404   1.480       .  S
C1390      C1425   1.480       .  S
C1391      C1392   1.407       .  A
C1391      C1396   1.417       .  A
C1392      C1393   1.407       .  A
C1392      H1397   1.083       .  S
C1393      C1394   1.417       .  A
C1394      C1395   1.399       .  A
C1394      H1398   1.083       .  S
C1395      C1402   1.507       .  S
C1395      C1396   1.399       .  A
C1396      H1399   1.083       .  S
C1400      C1401   1.417       .  A
C1400      C1405   1.407       .  A
C1401      C1402   1.399       .  A
C1401      H1406   1.083       .  S
C1402      C1403   1.399       .  A
C1403      C1404   1.417       .  A
C1403      H1407   1.083       .  S
C1404      C1405   1.407       .  A
C1405      H1408   1.083       .  S
O1409      C1419   1.292       .  A
O1409     Ni1417   1.964       .  S
O1410      C1420   1.292       .  A
O1410     Ni1417   1.964       .  S
O1411      C1421   1.269       .  A
O1411     Ni1417   1.862       .  S
O1412      C1422   1.269       .  A
O1412     Ni1417   1.862       .  S
O1413      C1422   1.292       .  A
O1413     Ni1418   1.964       .  S
O1414      C1421   1.292       .  A
O1414     Ni1418   1.964       .  S
O1415      C1420   1.269       .  A
O1415     Ni1418   1.862       .  S
O1416      C1419   1.269       .  A
O1416     Ni1418   1.862       .  S
Ni1417    Ni1418   2.378       .  S
C1420      C1423   1.480       .  S
C1421      C1432   1.480       .  S
C1423      C1424   1.407       .  A
C1423      C1428   1.417       .  A
C1424      C1425   1.407       .  A
C1424      H1429   1.083       .  S
C1425      C1426   1.417       .  A
C1426      C1427   1.399       .  A
C1426      H1430   1.083       .  S
C1427      C1428   1.399       .  A
C1428      H1431   1.083       .  S
C1432      C1433   1.417       .  A
C1432      C1437   1.407       .  A
C1433      C1434   1.399       .  A
C1433      H1438   1.083       .  S
C1434      C1619   1.507       .  S
C1434      C1435   1.399       .  A
C1435      C1436   1.417       .  A
C1435      H1439   1.083       .  S
C1436      C1437   1.407       .  A
C1437      H1440   1.083       .  S
O1441      C1451   1.292       .  A
O1442      C1452   1.292       .  A
O1442     Ni1449   1.964       .  S
O1443      C1453   1.269       .  A
O1444      C1454   1.269       .  A
O1445      C1454   1.292       .  A
O1445     Ni1642   1.964       .  S
O1446      C1453   1.292       .  A
O1447      C1452   1.269       .  A
O1447     Ni1546   1.862       .  S
O1448      C1451   1.269       .  A
O1448     Ni1450   1.862       .  S
Ni1449     O1537   1.964       .  S
Ni1449     O1635   1.862       .  S
Ni1449    Ni1546   2.378       .  S
C1451      C1466   1.480       .  S
C1452      C1496   1.480       .  S
C1453      C1489   1.480       .  S
C1454      C1459   1.480       .  S
C1455      C1515   1.480       .  S
C1455      C1456   1.417       .  A
C1455      C1460   1.407       .  A
C1456      C1457   1.399       .  A
C1456      H1461   1.083       .  S
C1457      C1458   1.399       .  A
C1458      C1459   1.417       .  A
C1458      H1462   1.083       .  S
C1459      C1460   1.407       .  A
C1460      H1463   1.083       .  S
C1464      C1518   1.480       .  S
C1464      C1465   1.407       .  A
C1464      C1469   1.417       .  A
C1465      C1466   1.407       .  A
C1465      H1470   1.083       .  S
C1466      C1467   1.417       .  A
C1467      C1468   1.399       .  A
C1467      H1471   1.083       .  S
C1468      C1469   1.399       .  A
C1469      H1472   1.083       .  S
O1473      C1483   1.292       .  A
O1473     Ni1481   1.964       .  S
O1474      C1484   1.292       .  A
O1475      C1485   1.269       .  A
O1475     Ni1481   1.862       .  S
O1476      C1486   1.269       .  A
O1477      C1486   1.292       .  A
O1478      C1485   1.292       .  A
O1478     Ni1482   1.964       .  S
O1479      C1484   1.269       .  A
O1480      C1483   1.269       .  A
O1480     Ni1482   1.862       .  S
Ni1481    Ni1482   2.378       .  S
C1483      C1532   1.480       .  S
C1484      C1487   1.480       .  S
C1485      C1500   1.480       .  S
C1486      C1521   1.480       .  S
C1487      C1488   1.407       .  A
C1487      C1492   1.417       .  A
C1488      C1489   1.407       .  A
C1488      H1493   1.083       .  S
C1489      C1490   1.417       .  A
C1490      C1491   1.399       .  A
C1490      H1494   1.083       .  S
C1491      C1498   1.507       .  S
C1491      C1492   1.399       .  A
C1492      H1495   1.083       .  S
C1496      C1497   1.417       .  A
C1496      C1501   1.407       .  A
C1497      C1498   1.399       .  A
C1497      H1502   1.083       .  S
C1498      C1499   1.399       .  A
C1499      C1500   1.417       .  A
C1499      H1503   1.083       .  S
C1500      C1501   1.407       .  A
C1501      H1504   1.083       .  S
O1505      C1515   1.292       .  A
O1505     Ni1513   1.964       .  S
O1506      C1516   1.292       .  A
O1506     Ni1513   1.964       .  S
O1507      C1517   1.269       .  A
O1507     Ni1513   1.862       .  S
O1508      C1518   1.269       .  A
O1508     Ni1513   1.862       .  S
O1509      C1518   1.292       .  A
O1509     Ni1514   1.964       .  S
O1510      C1517   1.292       .  A
O1510     Ni1514   1.964       .  S
O1511      C1516   1.269       .  A
O1511     Ni1514   1.862       .  S
O1512      C1515   1.269       .  A
O1512     Ni1514   1.862       .  S
Ni1513    Ni1514   2.378       .  S
C1516      C1519   1.480       .  S
C1517      C1528   1.480       .  S
C1519      C1520   1.407       .  A
C1519      C1524   1.417       .  A
C1520      C1521   1.407       .  A
C1520      H1525   1.083       .  S
C1521      C1522   1.417       .  A
C1522      C1523   1.399       .  A
C1522      H1526   1.083       .  S
C1523      C1524   1.399       .  A
C1524      H1527   1.083       .  S
C1528      C1529   1.417       .  A
C1528      C1533   1.407       .  A
C1529      C1530   1.399       .  A
C1529      H1534   1.083       .  S
C1530      C1715   1.507       .  S
C1530      C1531   1.399       .  A
C1531      C1532   1.417       .  A
C1531      H1535   1.083       .  S
C1532      C1533   1.407       .  A
C1533      H1536   1.083       .  S
O1537      C1547   1.292       .  A
O1538      C1548   1.292       .  A
O1538     Ni1545   1.964       .  S
O1539      C1549   1.269       .  A
O1540      C1550   1.269       .  A
O1540     Ni1641   1.862       .  S
O1541      C1550   1.292       .  A
O1542      C1549   1.292       .  A
O1542     Ni1642   1.964   1_554  S
O1543      C1548   1.269       .  A
O1544      C1547   1.269       .  A
O1544     Ni1546   1.862       .  S
Ni1545     O1636   1.862   1_554  S
Ni1546     O1638   1.964       .  S
C1547      C1562   1.480       .  S
C1548      C1592   1.480       .  S
C1549      C1585   1.480       .  S
C1550      C1555   1.480       .  S
C1551      C1611   1.480       .  S
C1551      C1552   1.417       .  A
C1551      C1556   1.407       .  A
C1552      C1553   1.399       .  A
C1552      H1557   1.083       .  S
C1553      C1554   1.399       .  A
C1554      C1555   1.417       .  A
C1554      H1558   1.083       .  S
C1555      C1556   1.407       .  A
C1556      H1559   1.083       .  S
C1560      C1614   1.480       .  S
C1560      C1561   1.407       .  A
C1560      C1565   1.417       .  A
C1561      C1562   1.407       .  A
C1561      H1566   1.083       .  S
C1562      C1563   1.417       .  A
C1563      C1564   1.399       .  A
C1563      H1567   1.083       .  S
C1564      C1565   1.399       .  A
C1565      H1568   1.083       .  S
O1569      C1579   1.292       .  A
O1569     Ni1577   1.964       .  S
O1570      C1580   1.292       .  A
O1571      C1581   1.269       .  A
O1571     Ni1577   1.862       .  S
O1572      C1582   1.269       .  A
O1573      C1582   1.292       .  A
O1574      C1581   1.292       .  A
O1574     Ni1578   1.964       .  S
O1575      C1580   1.269       .  A
O1576      C1579   1.269       .  A
O1576     Ni1578   1.862       .  S
Ni1577    Ni1578   2.378       .  S
C1579      C1628   1.480       .  S
C1580      C1583   1.480       .  S
C1581      C1596   1.480       .  S
C1582      C1617   1.480       .  S
C1583      C1584   1.407       .  A
C1583      C1588   1.417       .  A
C1584      C1585   1.407       .  A
C1584      H1589   1.083       .  S
C1585      C1586   1.417       .  A
C1586      C1587   1.399       .  A
C1586      H1590   1.083       .  S
C1587      C1594   1.507       .  S
C1587      C1588   1.399       .  A
C1588      H1591   1.083       .  S
C1592      C1593   1.417       .  A
C1592      C1597   1.407       .  A
C1593      C1594   1.399       .  A
C1593      H1598   1.083       .  S
C1594      C1595   1.399       .  A
C1595      C1596   1.417       .  A
C1595      H1599   1.083       .  S
C1596      C1597   1.407       .  A
C1597      H1600   1.083       .  S
O1601      C1611   1.292       .  A
O1601     Ni1609   1.964       .  S
O1602      C1612   1.292       .  A
O1602     Ni1609   1.964       .  S
O1603      C1613   1.269       .  A
O1603     Ni1609   1.862       .  S
O1604      C1614   1.269       .  A
O1604     Ni1609   1.862       .  S
O1605      C1614   1.292       .  A
O1605     Ni1610   1.964       .  S
O1606      C1613   1.292       .  A
O1606     Ni1610   1.964       .  S
O1607      C1612   1.269       .  A
O1607     Ni1610   1.862       .  S
O1608      C1611   1.269       .  A
O1608     Ni1610   1.862       .  S
Ni1609    Ni1610   2.378       .  S
C1612      C1615   1.480       .  S
C1613      C1624   1.480       .  S
C1615      C1616   1.407       .  A
C1615      C1620   1.417       .  A
C1616      C1617   1.407       .  A
C1616      H1621   1.083       .  S
C1617      C1618   1.417       .  A
C1618      C1619   1.399       .  A
C1618      H1622   1.083       .  S
C1619      C1620   1.399       .  A
C1620      H1623   1.083       .  S
C1624      C1625   1.417       .  A
C1624      C1629   1.407       .  A
C1625      C1626   1.399       .  A
C1625      H1630   1.083       .  S
C1626      C1627   1.399       .  A
C1627      C1628   1.417       .  A
C1627      H1631   1.083       .  S
C1628      C1629   1.407       .  A
C1629      H1632   1.083       .  S
O1633      C1643   1.292       .  A
O1634      C1644   1.292       .  A
O1634     Ni1641   1.964       .  S
O1635      C1645   1.269       .  A
O1636      C1646   1.269       .  A
O1637      C1646   1.292       .  A
O1638      C1645   1.292       .  A
O1639      C1644   1.269       .  A
O1640      C1643   1.269       .  A
O1640     Ni1642   1.862       .  S
C1643      C1658   1.480       .  S
C1644      C1688   1.480       .  S
C1645      C1681   1.480       .  S
C1646      C1651   1.480       .  S
C1647      C1707   1.480       .  S
C1647      C1648   1.417       .  A
C1647      C1652   1.407       .  A
C1648      C1649   1.399       .  A
C1648      H1653   1.083       .  S
C1649      C1650   1.399       .  A
C1650      C1651   1.417       .  A
C1650      H1654   1.083       .  S
C1651      C1652   1.407       .  A
C1652      H1655   1.083       .  S
C1656      C1710   1.480       .  S
C1656      C1657   1.407       .  A
C1656      C1661   1.417       .  A
C1657      C1658   1.407       .  A
C1657      H1662   1.083       .  S
C1658      C1659   1.417       .  A
C1659      C1660   1.399       .  A
C1659      H1663   1.083       .  S
C1660      C1661   1.399       .  A
C1661      H1664   1.083       .  S
O1665      C1675   1.292       .  A
O1665     Ni1673   1.964       .  S
O1666      C1676   1.292       .  A
O1667      C1677   1.269       .  A
O1667     Ni1673   1.862       .  S
O1668      C1678   1.269       .  A
O1669      C1678   1.292       .  A
O1670      C1677   1.292       .  A
O1670     Ni1674   1.964       .  S
O1671      C1676   1.269       .  A
O1672      C1675   1.269       .  A
O1672     Ni1674   1.862       .  S
Ni1673    Ni1674   2.378       .  S
C1675      C1724   1.480       .  S
C1676      C1679   1.480       .  S
C1677      C1692   1.480       .  S
C1678      C1713   1.480       .  S
C1679      C1680   1.407       .  A
C1679      C1684   1.417       .  A
C1680      C1681   1.407       .  A
C1680      H1685   1.083       .  S
C1681      C1682   1.417       .  A
C1682      C1683   1.399       .  A
C1682      H1686   1.083       .  S
C1683      C1690   1.507       .  S
C1683      C1684   1.399       .  A
C1684      H1687   1.083       .  S
C1688      C1689   1.417       .  A
C1688      C1693   1.407       .  A
C1689      C1690   1.399       .  A
C1689      H1694   1.083       .  S
C1690      C1691   1.399       .  A
C1691      C1692   1.417       .  A
C1691      H1695   1.083       .  S
C1692      C1693   1.407       .  A
C1693      H1696   1.083       .  S
O1697      C1707   1.292       .  A
O1697     Ni1705   1.964       .  S
O1698      C1708   1.292       .  A
O1698     Ni1705   1.964       .  S
O1699      C1709   1.269       .  A
O1699     Ni1705   1.862       .  S
O1700      C1710   1.269       .  A
O1700     Ni1705   1.862       .  S
O1701      C1710   1.292       .  A
O1701     Ni1706   1.964       .  S
O1702      C1709   1.292       .  A
O1702     Ni1706   1.964       .  S
O1703      C1708   1.269       .  A
O1703     Ni1706   1.862       .  S
O1704      C1707   1.269       .  A
O1704     Ni1706   1.862       .  S
Ni1705    Ni1706   2.378       .  S
C1708      C1711   1.480       .  S
C1709      C1720   1.480       .  S
C1711      C1712   1.407       .  A
C1711      C1716   1.417       .  A
C1712      C1713   1.407       .  A
C1712      H1717   1.083       .  S
C1713      C1714   1.417       .  A
C1714      C1715   1.399       .  A
C1714      H1718   1.083       .  S
C1715      C1716   1.399       .  A
C1716      H1719   1.083       .  S
C1720      C1721   1.417       .  A
C1720      C1725   1.407       .  A
C1721      C1722   1.399       .  A
C1721      H1726   1.083       .  S
C1722      C1723   1.399       .  A
C1723      C1724   1.417       .  A
C1723      H1727   1.083       .  S
C1724      C1725   1.407       .  A
C1725      H1728   1.083       .  S
