geometry optimzed in LAMMPS
_audit_creation_date              2020-11-30 
_audit_creation_method            'lammps2cif' 
_symmetry_space_group_name_H-M    'P1' 
_symmetry_Int_Tables_number       1 
_symmetry_cell_setting            triclinic 
loop_ 
_symmetry_equiv_pos_as_xyz 
  x,y,z 
_cell_length_a                    30.37690754689602 
_cell_length_b                    30.58446907410435 
_cell_length_c                    30.650307576648252 
_cell_angle_alpha                 90.09314255214613 
_cell_angle_beta                  89.6949379238691 
_cell_angle_gamma                 90.32778649235587 
loop_ 
_atom_site_label 
_atom_site_type_symbol 
_atom_site_fract_x 
_atom_site_fract_y 
_atom_site_fract_z 
_atom_site_charge 
O1          O  0.70251214  0.43325885  0.85313134    -0.57020
C2          C  0.79849561  0.34643964  0.79523252     0.75610
O3          O  0.79815533  0.35640877  0.92985752    -0.58180
C4          C  0.67667875  0.42685459  0.88532233     0.75580
C5          C  0.69531869  0.29745709  0.84885531     0.77970
Cd6        Cd  0.74900825  0.37066112  0.86897115     1.37460
O7          O  0.77402010  0.38005116  0.79356628    -0.57020
O8          O  0.69194261  0.33342287  0.82912178    -0.55830
C9          C  0.82620426  0.38573885  0.91935849     0.77930
O10         O  0.72105071  0.29597675  0.88147123    -0.58200
O11         O  0.80228064  0.32729269  0.83141906    -0.56650
O12         O  0.68891552  0.39929525  0.91370628    -0.56640
O13         O  0.81468935  0.41231066  0.88981486    -0.55810
O14         O  0.69796959  0.62827028  0.85337738    -0.57020
C15         C  0.80295920  0.70955161  0.79675287     0.75610
O16         O  0.72445077  0.76415116  0.87998432    -0.58180
C17         C  0.67228074  0.63635599  0.88528274     0.75580
C18         C  0.82335884  0.67265718  0.92505937     0.77970
Cd19       Cd  0.74947569  0.68844901  0.86969538     1.37460
O20         O  0.77777609  0.67613035  0.79538269    -0.57020
O21         O  0.81086002  0.64412742  0.89751166    -0.55830
C22         C  0.70027190  0.76305700  0.84618770     0.77930
O23         O  0.79766706  0.70480026  0.93141440    -0.58200
O24         O  0.80599124  0.72967891  0.83255923    -0.56650
O25         O  0.68601213  0.66383103  0.91330875    -0.56640
O26         O  0.69623997  0.72696168  0.82662208    -0.55810
O27         O  0.77562924  0.67323182  0.26805840    -0.57020
C28         C  0.67493769  0.63509173  0.17514538     0.75610
O29         O  0.72814365  0.76195370  0.18138777    -0.58180
C30         C  0.80153758  0.70609460  0.26692773     0.75580
C31         C  0.82430057  0.66972427  0.13953040     0.77970
Cd32       Cd  0.75023310  0.68595486  0.19342815     1.37460
O33         O  0.69649483  0.62921720  0.21006290    -0.57020
O34         O  0.81298317  0.64160381  0.16800933    -0.55830
C35         C  0.70107038  0.76166010  0.21318238     0.77930
O36         O  0.79704760  0.70003950  0.13148935    -0.58200
O37         O  0.69185821  0.65982223  0.14631040    -0.56650
O38         O  0.80621872  0.72588175  0.23112489    -0.56640
O39         O  0.69432136  0.72580523  0.23236460    -0.55810
O40         O  0.70690755  0.43111745  0.21542483    -0.57020
C41         C  0.80656127  0.34779498  0.26758556     0.75610
O42         O  0.72822153  0.29632670  0.17908957    -0.58180
C43         C  0.67849756  0.42290914  0.18614446     0.75580
C44         C  0.82862005  0.39222422  0.14051999     0.77970
Cd45       Cd  0.75533331  0.37099383  0.19505557     1.37470
O46         O  0.78139799  0.38082165  0.26978336    -0.57020
O47         O  0.81280280  0.42037668  0.16664530    -0.55830
C48         C  0.70319245  0.29596095  0.21256350     0.77930
O49         O  0.80661310  0.35720877  0.13498825    -0.58200
O50         O  0.81089658  0.32916321  0.23112755    -0.56650
O51         O  0.68977607  0.39568571  0.15680054    -0.56640
O52         O  0.70076973  0.33054764  0.23485786    -0.55810
O53         O  0.85473519  0.74911019  0.30485650    -0.57020
C54         C  0.89705211  0.84979080  0.39373474     0.75610
O55         O  0.76750277  0.80533681  0.38615684    -0.58180
C56         C  0.82051494  0.72489012  0.30606432     0.75580
C57         C  0.85487002  0.70268987  0.43278545     0.77970
Cd58       Cd  0.84244065  0.77653728  0.37886463     1.37460
O59         O  0.90717399  0.82062801  0.36581075    -0.57020
O60         O  0.88337826  0.71310543  0.40411865    -0.55830
C61         C  0.77158328  0.82975191  0.35270968     0.77930
O62         O  0.82545720  0.73096458  0.44140204    -0.58200
O63         O  0.86645369  0.84037529  0.42058345    -0.56650
O64         O  0.79976969  0.72200995  0.34173315    -0.56640
O65         O  0.80880957  0.83155584  0.33432503    -0.55810
O66         O  0.90865663  0.82698174  0.69447067    -0.57020
C67         C  0.82294639  0.72826713  0.75771688     0.75610
O68         O  0.77195933  0.80739874  0.67218947    -0.58180
C69         C  0.90281632  0.84798476  0.65918409     0.75580
C70         C  0.86155170  0.70129291  0.63386892     0.77970
Cd71       Cd  0.84633826  0.77799711  0.68332172     1.37460
O72         O  0.85640297  0.75356518  0.75914442    -0.57020
O73         O  0.89089233  0.71634887  0.65930061    -0.55830
C74         C  0.77452767  0.83327570  0.70469910     0.77930
O75         O  0.82805007  0.72506525  0.62697754    -0.58200
O76         O  0.80383159  0.72375016  0.72154782    -0.56650
O77         O  0.87572519  0.83215531  0.63189433    -0.56640
O78         O  0.81115120  0.83626879  0.72376210    -0.55810
O79         O  0.14293035  0.74769081  0.76579533    -0.57020
C80         C  0.09669380  0.84945309  0.68143471     0.75610
O81         O  0.22639704  0.80225005  0.67653253    -0.58180
C82         C  0.17653606  0.72319296  0.76277394     0.75580
C83         C  0.13263302  0.70077914  0.63684751     0.77970
Cd84       Cd  0.15117856  0.77459711  0.69112280     1.37470
O85         O  0.08919921  0.82153763  0.71132774    -0.57020
O86         O  0.10435201  0.71396680  0.66448396    -0.55830
C87         C  0.22642502  0.82659974  0.71028676     0.77930
O88         O  0.16530959  0.72592460  0.62937418    -0.58200
O89         O  0.12448398  0.83852243  0.65227903    -0.56650
O90         O  0.19481465  0.71960343  0.72593526    -0.56640
O91         O  0.19111399  0.82915981  0.73193551    -0.55810
O92         O  0.09893695  0.82829505  0.35097263    -0.57020
C93         C  0.18021046  0.72406984  0.29494673     0.75610
O94         O  0.23424236  0.80523865  0.37711341    -0.58180
C95         C  0.10618456  0.85286000  0.38373544     0.75580
C96         C  0.14296599  0.70384488  0.42217725     0.77970
Cd97       Cd  0.15903304  0.77776704  0.36711389     1.37470
O98         O  0.14657992  0.74870708  0.29327882    -0.57020
O99         O  0.11486838  0.71629069  0.39431166    -0.55830
C100        C  0.23316988  0.82865677  0.34281274     0.77930
O101        O  0.17534777  0.72955869  0.42890036    -0.58200
O102        O  0.20064316  0.72203229  0.33060058    -0.56650
O103        O  0.13289682  0.83875053  0.41211976    -0.56640
O104        O  0.19710321  0.83111091  0.32278877    -0.55810
O105        O  0.66136305  0.12224930  0.82666775    -0.57020
C106        C  0.72523853  0.20558809  0.72889365     0.75610
O107        O  0.59113458  0.20059902  0.72929297    -0.58180
C108        C  0.63105920  0.13172311  0.85386836     0.75580
C109        C  0.67492422  0.25845447  0.83047439     0.77970
Cd110      Cd  0.65028549  0.18497972  0.78009778     1.37470
O111        O  0.72645573  0.17328710  0.75505111    -0.57020
O112        O  0.69404062  0.22209369  0.83392300    -0.55830
C113        C  0.60007599  0.16875574  0.70396025     0.77930
O114        O  0.64097139  0.26023647  0.80632270    -0.58200
O115        O  0.68904401  0.22508259  0.72460142    -0.56650
O116        O  0.60438846  0.16147621  0.84267116    -0.56640
O117        O  0.62711297  0.14064263  0.71801187    -0.55810
O118        O  0.67776609  0.93585810  0.82877707    -0.57020
C119        C  0.73574740  0.85391355  0.72382319     0.75610
O120        O  0.64931271  0.80153647  0.80131127    -0.58180
C121        C  0.64478787  0.92698114  0.85310098     0.75580
C122        C  0.60499488  0.89470896  0.70424527     0.77970
Cd123      Cd  0.66190090  0.87698264  0.77613646     1.37460
O124        O  0.73816861  0.88712964  0.74886267    -0.57020
O125        O  0.63130243  0.92407861  0.71797957    -0.55830
C126        C  0.68234226  0.80244221  0.82670715     0.77930
O127        O  0.60060435  0.86065269  0.72763658    -0.58200
O128        O  0.69872936  0.83546695  0.72011843    -0.56650
O129        O  0.61678745  0.89994109  0.83807067    -0.56640
O130        O  0.70270272  0.83825339  0.83081716    -0.55810
O131        O  0.32820440  0.93037851  0.82541719    -0.57020
C132        C  0.26649212  0.84634540  0.72756482     0.75610
O133        O  0.40302160  0.85299489  0.72601375    -0.58180
C134        C  0.36282193  0.92512563  0.84794664     0.75580
C135        C  0.32183680  0.79644431  0.82887172     0.77970
Cd136      Cd  0.34260048  0.86946325  0.77590060     1.37470
O137        O  0.26589068  0.87984701  0.75229514    -0.57020
O138        O  0.30297474  0.83278822  0.83346138    -0.55830
C139        C  0.39484804  0.88414299  0.69982712     0.77930
O140        O  0.35421628  0.79454363  0.80241138    -0.58200
O141        O  0.30276750  0.82708637  0.72250834    -0.56650
O142        O  0.39136587  0.89872802  0.83310531    -0.56640
O143        O  0.36662990  0.91205218  0.71236959    -0.55810
O144        O  0.40257744  0.19943622  0.73061409    -0.57020
C145        C  0.31631726  0.25925768  0.82744540     0.75610
O146        O  0.26416938  0.17485767  0.75072157    -0.58180
C147        C  0.39452491  0.16836723  0.70408742     0.75580
C148        C  0.35452174  0.13148798  0.85450422     0.77970
Cd149      Cd  0.33958534  0.18437132  0.77839524     1.37470
O150        O  0.35088416  0.25985805  0.80374598    -0.57020
O151        O  0.38237141  0.15997488  0.84185444    -0.55830
C152        C  0.26689924  0.20795624  0.72561574     0.77930
O153        O  0.32305350  0.12320594  0.82839534    -0.58200
O154        O  0.29599008  0.22337650  0.83130989    -0.56650
O155        O  0.36615496  0.14014063  0.71624543    -0.56640
O156        O  0.30385216  0.22669631  0.72225603    -0.55810
O157        O  0.67848006  0.93552455  0.22891156    -0.57020
C158        C  0.73405902  0.85066890  0.33235332     0.75610
O159        O  0.60159224  0.86504557  0.33126356    -0.58180
C160        C  0.64631352  0.92633924  0.20396263     0.75580
C161        C  0.68291791  0.80164171  0.23127942     0.77970
Cd162      Cd  0.66239375  0.87659164  0.28051666     1.37470
O163        O  0.73807759  0.88404519  0.30774608    -0.57020
O164        O  0.70442678  0.83690674  0.22762047    -0.55830
C165        C  0.60998720  0.89869599  0.35429036     0.77930
O166        O  0.64848281  0.80174622  0.25523504    -0.58200
O167        O  0.69665443  0.83273930  0.33501726    -0.56650
O168        O  0.61846607  0.89856972  0.21819779    -0.56640
O169        O  0.63799451  0.92585092  0.33930613    -0.55810
O170        O  0.66794940  0.12237706  0.22619140    -0.57020
C171        C  0.73081374  0.20338811  0.33080159     0.75610
O172        O  0.64833300  0.25773159  0.25359311    -0.58180
C173        C  0.63238811  0.12901424  0.20550041     0.75580
C174        C  0.60520090  0.16863414  0.35419253     0.77970
Cd175      Cd  0.65704960  0.18225886  0.27825307     1.37460
O176        O  0.73289806  0.17084934  0.30478042    -0.57020
O177        O  0.63245934  0.13973811  0.34166856    -0.55830
C178        C  0.68214833  0.25637694  0.22893543     0.78780
O179        O  0.59702179  0.19943232  0.32758817    -0.58200
O180        O  0.69434127  0.22258466  0.33445327    -0.56650
O181        O  0.60547490  0.15604622  0.22209036    -0.56640
O182        O  0.70053153  0.21984809  0.22356378    -0.55810
O183        O  0.34841458  0.93361641  0.22915430    -0.57020
C184        C  0.27291081  0.84708778  0.32337321     0.75610
O185        O  0.35639057  0.79103381  0.24792931    -0.58180
C186        C  0.37700429  0.91968690  0.20201606     0.75580
C187        C  0.39986651  0.87683781  0.35159280     0.77970
Cd188      Cd  0.34928251  0.86625633  0.27391240     1.37460
O189        O  0.27222306  0.87867825  0.29626502    -0.57020
O190        O  0.37321570  0.90600425  0.33902320    -0.55830
C191        C  0.32266492  0.79334752  0.22354121     0.77930
O192        O  0.40813662  0.84637945  0.32438499    -0.58200
O193        O  0.30913803  0.82821498  0.32950578    -0.56650
O194        O  0.39596727  0.88404803  0.21112264    -0.56640
O195        O  0.30425189  0.83009378  0.21980268    -0.55810
O196        O  0.35471736  0.25999223  0.25040994    -0.57020
C197        C  0.39895290  0.16631971  0.35000717     0.75610
O198        O  0.26980434  0.17298904  0.30439976    -0.58180
C199        C  0.31947530  0.25883213  0.22803297     0.75580
C200        C  0.35734719  0.13294185  0.19912109     0.77970
Cd201      Cd  0.34466077  0.18433408  0.27622745     1.37460
O202        O  0.40660679  0.19888128  0.32518107    -0.57020
O203        O  0.38491126  0.16235069  0.21001118    -0.55830
C204        C  0.27233492  0.20587351  0.32983659     0.77930
O205        O  0.32823005  0.12307144  0.22755966    -0.58200
O206        O  0.37127706  0.13822788  0.33635611    -0.56650
O207        O  0.29904142  0.22288117  0.22568055    -0.56640
O208        O  0.30894847  0.22526606  0.33282992    -0.55810
O209        O  0.20265676  0.69996882  0.93388527    -0.57020
C210        C  0.30260750  0.75759701  0.84880174     0.75610
O211        O  0.30247153  0.62527104  0.85826219    -0.58180
C212        C  0.17489704  0.66973494  0.92557897     0.75580
C213        C  0.19757518  0.70487167  0.80092484     0.77970
Cd214      Cd  0.25071753  0.68425747  0.87272543     1.37470
O215        O  0.27765914  0.75958870  0.88224641    -0.57020
O216        O  0.19546677  0.72541189  0.83659487    -0.55830
C217        C  0.32406332  0.63147593  0.89319731     0.77930
O218        O  0.22246052  0.67149602  0.79889127    -0.58200
O219        O  0.30606638  0.72116100  0.82979170    -0.56650
O220        O  0.18616608  0.64173932  0.89699691    -0.56640
O221        O  0.30789019  0.65751571  0.92122815    -0.55810
O222        O  0.19549434  0.35935860  0.92439838    -0.57020
C223        C  0.29674753  0.29901881  0.84478148     0.75610
O224        O  0.22121080  0.38466213  0.78929193    -0.58180
C225        C  0.17174291  0.39279955  0.91787396     0.75580
C226        C  0.32268240  0.42600940  0.87653466     0.77970
Cd227      Cd  0.24614209  0.37427023  0.86420229     1.37470
O228        O  0.27130406  0.29899849  0.87792603    -0.57020
O229        O  0.30965166  0.39857831  0.90500507    -0.55830
C230        C  0.19498909  0.35215508  0.79158730     0.77930
O231        O  0.29581319  0.43479811  0.84613364    -0.58200
O232        O  0.30071966  0.33421372  0.82373055    -0.56650
O233        O  0.18664784  0.42136064  0.89152943    -0.56640
O234        O  0.18995551  0.33373209  0.82802494    -0.55810
O235        O  0.20040584  0.69390955  0.12397723    -0.57020
C236        C  0.30216533  0.75441499  0.20506168     0.75610
O237        O  0.22400137  0.67036291  0.25850707    -0.58180
C238        C  0.17633157  0.66047332  0.13113649     0.75580
C239        C  0.32820891  0.62963901  0.16890810     0.77970
Cd240      Cd  0.25102328  0.67995343  0.18336489     1.37460
O241        O  0.27755967  0.75552032  0.17153782    -0.57020
O242        O  0.31470656  0.65577917  0.13974057    -0.55830
C243        C  0.19899806  0.70357582  0.25630999     0.77930
O244        O  0.30193969  0.62138474  0.20037656    -0.58200
O245        O  0.30498257  0.71864720  0.22524962    -0.56650
O246        O  0.19101104  0.63198930  0.15738243    -0.56640
O247        O  0.19524534  0.72208901  0.21979254    -0.55810
O248        O  0.20280342  0.35758921  0.12578322    -0.57020
C249        C  0.29949806  0.29799377  0.21010800     0.75610
O250        O  0.29602471  0.43374515  0.20801768    -0.58180
C251        C  0.17406730  0.38658206  0.13398077     0.75580
C252        C  0.19698621  0.34872538  0.26381121     0.77970
Cd253      Cd  0.24746404  0.37204585  0.19016105     1.37470
O254        O  0.27262866  0.29653664  0.17842746    -0.57020
O255        O  0.19281982  0.32936233  0.22770501    -0.55830
C256        C  0.32232162  0.42649770  0.17639018     0.77930
O257        O  0.22141194  0.38264089  0.26508931    -0.58200
O258        O  0.30458857  0.33417751  0.22920918    -0.56650
O259        O  0.18323953  0.41333372  0.16441213    -0.56640
O260        O  0.30973154  0.39897964  0.14795791    -0.55810
O261        O  0.90029672  0.22795953  0.69933605    -0.57020
C262        C  0.81710713  0.32655468  0.75642043     0.75610
O263        O  0.82470751  0.32115432  0.62217443    -0.58180
C264        C  0.89310693  0.20197073  0.66767736     0.75580
C265        C  0.76463419  0.22383186  0.70862023     0.77970
Cd266      Cd  0.83870600  0.27450228  0.68399500     1.37460
O267        O  0.85047562  0.30159204  0.75797496    -0.57020
O268        O  0.80128421  0.22011667  0.72737531    -0.55830
C269        C  0.85422476  0.34910964  0.63212829     0.77930
O270        O  0.76293040  0.24810850  0.67496015    -0.58200
O271        O  0.79699420  0.32968151  0.72065626    -0.56650
O272        O  0.86532244  0.21383416  0.63929616    -0.56640
O273        O  0.88167971  0.33806798  0.66115667    -0.55810
O274        O  0.14169951  0.30821708  0.75530604    -0.57020
C275        C  0.10205860  0.20123384  0.67484272     0.75610
O276        O  0.16717887  0.33012410  0.62249311    -0.58180
C277        C  0.17605554  0.33214303  0.75322576     0.75580
C278        C  0.22815381  0.22786212  0.70617468     0.77970
Cd279      Cd  0.15383941  0.27851432  0.68259408     1.37460
O280        O  0.09501152  0.22888453  0.70510839    -0.57020
O281        O  0.19212953  0.22657362  0.72674743    -0.55830
C282        C  0.13267707  0.35250467  0.62971519     0.77930
O283        O  0.22979867  0.25084967  0.67150407    -0.58200
O284        O  0.12759929  0.21345508  0.64408862    -0.56650
O285        O  0.19695584  0.33359184  0.71759011    -0.56640
O286        O  0.10441938  0.33629911  0.65584811    -0.55810
O287        O  0.90265719  0.22401248  0.36270166    -0.57020
C288        C  0.82451380  0.32752951  0.30625205     0.75610
O289        O  0.76685866  0.24588787  0.38590311    -0.58180
C290        C  0.89630772  0.20106980  0.39672718     0.75580
C291        C  0.85943712  0.34849627  0.43149109     0.77970
Cd292      Cd  0.84269868  0.27399575  0.37816403     1.37470
O293        O  0.85758715  0.30214691  0.30474714    -0.57020
O294        O  0.88908839  0.33319384  0.40645594    -0.55830
C295        C  0.76955262  0.22228878  0.35169702     0.77930
O296        O  0.82472942  0.32551052  0.43664445    -0.58200
O297        O  0.80362373  0.33048733  0.34178707    -0.56650
O298        O  0.86946920  0.21552328  0.42517202    -0.56640
O299        O  0.80656331  0.21992598  0.33302031    -0.55810
O300        O  0.09725565  0.22872716  0.36044827    -0.57020
C301        C  0.17952452  0.32849101  0.30302908     0.75610
O302        O  0.17983120  0.32257246  0.43820959    -0.58180
C303        C  0.10617533  0.20112459  0.39008416     0.75580
C304        C  0.23376369  0.22492350  0.35035223     0.77970
Cd305      Cd  0.16074138  0.27565525  0.37602258     1.37460
O306        O  0.14606481  0.30327892  0.30250353    -0.57020
O307        O  0.19708805  0.22226117  0.33145994    -0.55830
C308        C  0.14928256  0.34986243  0.43095538     0.77930
O309        O  0.23627179  0.24884568  0.38427756    -0.58200
O310        O  0.20103861  0.33132615  0.33798843    -0.56650
O311        O  0.13548756  0.21238094  0.41735140    -0.56640
O312        O  0.11999801  0.33802401  0.40386592    -0.55810
C313        C  0.52090990  0.52890248  0.90248662     0.01360
C314        C  0.47605922  0.52453201  0.90531282     0.01360
C315        C  0.52563265  0.52346965  0.16610495     0.01360
C316        C  0.48081006  0.52638889  0.16914241     0.01360
C317        C  0.50214984  0.89030947  0.54906898     0.01360
C318        C  0.50293798  0.89214951  0.50445066     0.01360
C319        C  0.49870052  0.16310187  0.55018449     0.01360
C320        C  0.49956589  0.16299711  0.50576930     0.01360
C321        C  0.86202772  0.54766797  0.53267539     0.01360
C322        C  0.86420222  0.50332002  0.53241490     0.01360
C323        C  0.12934564  0.55077266  0.52847795     0.01360
C324        C  0.12813532  0.50602576  0.52717390     0.01360
C325        C  0.00022443  0.04859721  0.39702719     0.01360
C326        C  0.00014307  0.00411438  0.39802056     0.01360
C327        C  0.99600362  0.00479542  0.66417726     0.01360
C328        C  0.99551486  0.04833444  0.67485362     0.01360
C329        C  0.36608530  0.02418719  0.00531653     0.01360
C330        C  0.37249946  0.02445064  0.04987330     0.01360
C331        C  0.62145678  0.02710716  0.00689240     0.01360
C332        C  0.61954915  0.02732477  0.05150933     0.01360
C333        C  0.97647449  0.40132987  0.02688291     0.01360
C334        C  0.02137545  0.40181597  0.02687814     0.01360
C335        C  0.02122328  0.66883116  0.03185294     0.01360
C336        C  0.97636275  0.67034221  0.03159530     0.01360
C337        C  0.08521512  0.15689354  0.39084235     0.00640
C338        C  0.06555853  0.14114282  0.35253322    -0.11230
C339        C  0.04442764  0.10039911  0.35162674     0.02880
C340        C  0.04096936  0.07511846  0.38998376     0.00550
C341        C  0.06512574  0.08815390  0.42669283    -0.11170
C342        C  0.08707502  0.12869603  0.42733995     0.02760
H343        H  0.06616249  0.16090861  0.32319630     0.15740
H344        H  0.06289396  0.06893161  0.45634559     0.15740
C345        C  0.10913918  0.14179894  0.46658050     0.37390
C346        C  0.02452812  0.08617945  0.31135413     0.37300
N347        N  0.12762373  0.15376430  0.49719607    -0.42950
N348        N  0.00919971  0.07504908  0.27865952    -0.42950
C349        C  0.14866269  0.39456356  0.45068107     0.00640
C350        C  0.11486059  0.42335813  0.43871537    -0.11230
C351        C  0.11170955  0.46535263  0.45686769     0.02880
C352        C  0.14224057  0.47925569  0.48857879     0.00550
C353        C  0.17976564  0.45328120  0.49502981    -0.11170
C354        C  0.18268269  0.41094248  0.47765544     0.02760
H355        H  0.09001373  0.41281313  0.41564348     0.15740
H356        H  0.20448881  0.46405326  0.51814267     0.15740
C357        C  0.21993671  0.38476207  0.49012888     0.37390
C358        C  0.07619003  0.49257402  0.44250058     0.37300
N359        N  0.24983639  0.36397706  0.50045395    -0.42950
N360        N  0.04746771  0.51292779  0.42877152    -0.42950
C361        C  0.91707604  0.15793392  0.40152232     0.00640
C362        C  0.90889393  0.12585866  0.36972788    -0.11230
C363        C  0.93052672  0.08546659  0.37074825     0.02880
C364        C  0.96059468  0.07655398  0.40453876     0.00550
C365        C  0.96382977  0.10671092  0.43932040    -0.11170
C366        C  0.94429831  0.14796249  0.43690219     0.02760
H367        H  0.88685114  0.13311989  0.34299242     0.15740
H368        H  0.98648036  0.10036249  0.46573275     0.15740
C369        C  0.95799175  0.18155747  0.46712832     0.37390
C370        C  0.92318142  0.05542833  0.33521075     0.37300
N371        N  0.96980832  0.20890588  0.49051302    -0.42950
N372        N  0.91639086  0.03205011  0.30626317    -0.42950
C373        C  0.86373693  0.39252117  0.45140174     0.00640
C374        C  0.82736997  0.42077111  0.45034000    -0.11230
C375        C  0.82901181  0.46214508  0.47023643     0.02880
C376        C  0.86735210  0.47560455  0.49236654     0.00550
C377        C  0.90496715  0.44918741  0.48917722    -0.11170
C378        C  0.90343559  0.40777957  0.46959489     0.02760
H379        H  0.79717241  0.41004457  0.43482029     0.15740
H380        H  0.93418832  0.45886396  0.50666601     0.15740
C381        C  0.94146103  0.37987894  0.47297750     0.37390
C382        C  0.78985949  0.48858791  0.47051517     0.37300
N383        N  0.97180148  0.35740954  0.47615739    -0.42950
N384        N  0.75829735  0.50958646  0.47041994    -0.42950
C385        C  0.11993504  0.47788927  0.56651273     0.00640
C386        C  0.15565341  0.46980654  0.59419252    -0.11230
C387        C  0.15967712  0.42954564  0.61574848     0.02880
C388        C  0.12705442  0.39676534  0.61069820     0.00550
C389        C  0.08859378  0.40706304  0.58806907    -0.11170
C390        C  0.08496266  0.44704802  0.56591954     0.02760
H391        H  0.18295425  0.49271625  0.59497725     0.15740
H392        H  0.06251702  0.38284180  0.58544004     0.15740
C393        C  0.04676054  0.45391036  0.53931380     0.37390
C394        C  0.19809900  0.42239574  0.64225993     0.37300
N395        N  0.01625191  0.45903377  0.51760314    -0.42950
N396        N  0.22883438  0.41698141  0.66368775    -0.42950
C397        C  0.03656589  0.07525421  0.68014357     0.00640
C398        C  0.05798917  0.08905982  0.64186559    -0.11230
C399        C  0.08415315  0.12688686  0.64125488     0.02880
C400        C  0.08225523  0.15648226  0.67654177     0.00550
C401        C  0.06400245  0.14125952  0.71593650    -0.11170
C402        C  0.04434390  0.09969442  0.71856082     0.02760
H403        H  0.05228341  0.07194749  0.61166417     0.15740
H404        H  0.06669501  0.16101159  0.74522769     0.15740
C405        C  0.03554380  0.08193567  0.76119938     0.37390
C406        C  0.11642450  0.13152595  0.60709803     0.37300
N407        N  0.03025297  0.06828233  0.79603827    -0.42950
N408        N  0.14487569  0.13403583  0.58204503    -0.42950
C409        C  0.91350950  0.15823124  0.66673477     0.00640
C410        C  0.91850535  0.13687123  0.70674906    -0.11230
C411        C  0.93824360  0.09596452  0.70904502     0.02880
C412        C  0.95612315  0.07661091  0.67106362     0.00550
C413        C  0.94750675  0.09599060  0.63045173    -0.11170
C414        C  0.92506806  0.13595770  0.62801424     0.02760
H415        H  0.90636065  0.15199805  0.73648478     0.15740
H416        H  0.96074786  0.08133594  0.60096479     0.15740
C417        C  0.91513371  0.15384808  0.58581081     0.37390
C418        C  0.93812727  0.07391536  0.75065963     0.37300
N419        N  0.90573801  0.16810090  0.55224112    -0.42950
N420        N  0.93595506  0.05590095  0.78379541    -0.42950
C421        C  0.85507080  0.39356844  0.61277639     0.00640
C422        C  0.89387744  0.41892988  0.61442208    -0.11230
C423        C  0.89593629  0.46027143  0.59460744     0.02880
C424        C  0.85896218  0.47647170  0.57246138     0.00550
C425        C  0.81887946  0.45387592  0.57618763    -0.11170
C426        C  0.81659820  0.41272030  0.59559203     0.02760
H427        H  0.92306930  0.40588197  0.62975991     0.15740
H428        H  0.79006893  0.46638607  0.55978132     0.15740
C429        C  0.77428870  0.39092983  0.59650050     0.37390
C430        C  0.93667283  0.48464881  0.59563245     0.37300
N431        N  0.74028568  0.37367448  0.59715849    -0.42950
N432        N  0.96924217  0.50435493  0.59720105    -0.42950
C433        C  0.36679198  0.44699943  0.17436339     0.00640
C434        C  0.38703874  0.46011974  0.21350263    -0.11230
C435        C  0.42897333  0.47961095  0.21342203     0.02880
C436        C  0.45087415  0.48783953  0.17357143     0.00550
C437        C  0.43218015  0.47149064  0.13501830    -0.11170
C438        C  0.39095713  0.45084689  0.13502191     0.02760
H439        H  0.36998892  0.45537393  0.24432558     0.15740
H440        H  0.44803328  0.47822910  0.10408098     0.15740
C441        C  0.37343585  0.43644118  0.09368653     0.37390
C442        C  0.44801508  0.49289481  0.25443069     0.37300
N443        N  0.35962209  0.42469818  0.06053048    -0.42950
N444        N  0.46324285  0.50354708  0.28733481    -0.42950
C445        C  0.13092328  0.38793512  0.11080912     0.00640
C446        C  0.10266427  0.42382275  0.11712601    -0.11230
C447        C  0.06217943  0.42657547  0.09519875     0.02880
C448        C  0.04927217  0.39326843  0.06612610     0.00550
C449        C  0.07462921  0.35498860  0.06464423    -0.11170
C450        C  0.11541382  0.35239758  0.08540449     0.02760
H451        H  0.11244068  0.45022956  0.13870044     0.15740
H452        H  0.06427259  0.32814799  0.04388988     0.15740
C453        C  0.14075753  0.31311411  0.07869431     0.37390
C454        C  0.03389401  0.46289454  0.10458534     0.37300
N455        N  0.16096446  0.28163416  0.07296754    -0.42950
N456        N  0.01112271  0.49149481  0.11420088    -0.42950
C457        C  0.45560031  0.56814943  0.16595735     0.00640
C458        C  0.43922495  0.58587771  0.20498955    -0.11230
C459        C  0.39843829  0.60702534  0.20628155     0.02880
C460        C  0.37343742  0.61141543  0.16773060     0.00550
C461        C  0.39298990  0.59982452  0.12781154    -0.11170
C462        C  0.43386789  0.57859179  0.12688081     0.02760
H463        H  0.45626080  0.57964578  0.23526606     0.15740
H464        H  0.37540135  0.60519415  0.09761330     0.15740
C465        C  0.45160150  0.56435473  0.08589791     0.37390
C466        C  0.38294968  0.62362323  0.24771492     0.37300
N467        N  0.46659104  0.55198434  0.05355251    -0.42950
N468        N  0.37069100  0.63716916  0.28086996    -0.42950
C469        C  0.13139768  0.65750784  0.11283404     0.00640
C470        C  0.10375130  0.69377582  0.11810079    -0.11230
C471        C  0.06209605  0.69503569  0.09874670     0.02880
C472        C  0.04824366  0.66030708  0.07167090     0.00550
C473        C  0.07348306  0.62172783  0.07145878    -0.11170
C474        C  0.11482897  0.62004243  0.09168414     0.02760
H475        H  0.11516281  0.72173033  0.13681651     0.15740
H476        H  0.06293567  0.59439219  0.05157019     0.15740
C477        C  0.14106612  0.58113259  0.08678699     0.37390
C478        C  0.03556570  0.73330839  0.10587126     0.37300
N479        N  0.16199246  0.54987422  0.08270248    -0.42950
N480        N  0.01534467  0.76451947  0.11286097    -0.42950
C481        C  0.12773712  0.39718239  0.93852128     0.00640
C482        C  0.11429970  0.43780912  0.95487428    -0.11230
C483        C  0.07488127  0.44153106  0.97856900     0.02880
C484        C  0.04807980  0.40434103  0.98592265     0.00550
C485        C  0.05840915  0.36533090  0.96416362    -0.11170
C486        C  0.09816963  0.36131127  0.94106950     0.02760
H487        H  0.13569505  0.46609253  0.95126236     0.15740
H488        H  0.03764818  0.33675064  0.96895173     0.15740
C489        C  0.10806396  0.31985756  0.92074864     0.37390
C490        C  0.06382527  0.48327289  0.99746617     0.37300
N491        N  0.11585866  0.28668602  0.90429802    -0.42950
N492        N  0.05487825  0.51685004  0.01235797    -0.42950
C493        C  0.36795023  0.44497414  0.87831006     0.00640
C494        C  0.39546974  0.43261948  0.91274748    -0.11230
C495        C  0.43732458  0.45123757  0.91803108     0.02880
C496        C  0.45187436  0.48458841  0.88943892     0.00550
C497        C  0.42786857  0.49066628  0.85073005    -0.11170
C498        C  0.38594920  0.47206067  0.84528132     0.02760
H499        H  0.38394294  0.40888034  0.93652123     0.15740
H500        H  0.43946309  0.51451378  0.82710013     0.15740
C501        C  0.36197287  0.48291525  0.80627466     0.37390
C502        C  0.46313677  0.43500800  0.95360465     0.37300
N503        N  0.34300028  0.49166199  0.77485792    -0.42950
N504        N  0.48105922  0.41845598  0.98233555    -0.42950
C505        C  0.44553056  0.56240497  0.91156411     0.00640
C506        C  0.44149775  0.59230533  0.87702246    -0.11230
C507        C  0.40226867  0.61540204  0.87069561     0.02880
C508        C  0.36694411  0.61039973  0.90040475     0.00550
C509        C  0.37253539  0.58458436  0.93736199    -0.11170
C510        C  0.41062870  0.55971050  0.94258876     0.02760
H511        H  0.46688540  0.59392185  0.85212150     0.15740
H512        H  0.34554055  0.58112098  0.96046384     0.15740
C513        C  0.40970805  0.52774784  0.97706471     0.37390
C514        C  0.39847523  0.64288397  0.83265316     0.37300
N515        N  0.40660663  0.50183119  0.00438971    -0.42950
N516        N  0.39546689  0.66482488  0.80209981    -0.42950
C517        C  0.13050455  0.66960603  0.94653423     0.00640
C518        C  0.11607633  0.70879959  0.96547968    -0.11230
C519        C  0.07578595  0.71132389  0.98736417     0.02880
C520        C  0.04893886  0.67375511  0.99184243     0.00550
C521        C  0.06085389  0.63574213  0.96890526    -0.11170
C522        C  0.10119547  0.63336639  0.94620101     0.02760
H523        H  0.13680559  0.73776574  0.96398431     0.15740
H524        H  0.04057168  0.60661736  0.97214034     0.15740
C525        C  0.11238084  0.59267164  0.92512226     0.37390
C526        C  0.06451986  0.75258743  0.00717210     0.37300
N527        N  0.12101776  0.55999408  0.90810809    -0.42950
N528        N  0.05694488  0.78641840  0.02230907    -0.42950
C529        C  0.35843188  0.06387573  0.07564782     0.00640
C530        C  0.38913921  0.09771180  0.08257754    -0.11230
C531        C  0.38943194  0.12128045  0.12211156     0.02880
C532        C  0.35753428  0.11200444  0.15493864     0.00550
C533        C  0.32323301  0.08280123  0.14469718    -0.11170
C534        C  0.32328717  0.05916219  0.10559932     0.02760
H535        H  0.41642494  0.10158398  0.05995032     0.15740
H536        H  0.29705655  0.07678110  0.16815452     0.15740
C537        C  0.28912209  0.02689398  0.09913428     0.37390
C538        C  0.42471714  0.15230205  0.12891814     0.37300
N539        N  0.26126532  0.00133953  0.09481609    -0.42950
N540        N  0.45316310  0.17705957  0.13417439    -0.42950
C541        C  0.41879449  0.16350316  0.39430942     0.00640
C542        C  0.42652799  0.20266832  0.41710327    -0.11230
C543        C  0.44575729  0.20271479  0.45856646     0.02880
C544        C  0.45963827  0.16311088  0.47753187     0.00550
C545        C  0.44806327  0.12370192  0.45671292    -0.11170
C546        C  0.42741057  0.12354342  0.41570499     0.02760
H547        H  0.41782318  0.23360453  0.40228471     0.15740
H548        H  0.45849972  0.09302478  0.47081959     0.15740
C549        C  0.41828028  0.08201731  0.39517899     0.37390
C550        C  0.45335996  0.24424973  0.47967614     0.37300
N551        N  0.41086946  0.04868483  0.37879689    -0.42950
N552        N  0.45903180  0.27794066  0.49598900    -0.42950
C553        C  0.38594955  0.94231815  0.16020550     0.00640
C554        C  0.37356498  0.92207912  0.12102490    -0.11230
C555        C  0.37653960  0.94424639  0.08079932     0.02880
C556        C  0.39105888  0.98849897  0.07958083     0.00550
C557        C  0.41283179  0.00363285  0.11778587    -0.11170
C558        C  0.40747637  0.98281361  0.15818513     0.02760
H559        H  0.36121666  0.88872634  0.12189237     0.15740
H560        H  0.42983794  0.03474573  0.11751408     0.15740
C561        C  0.42233715  0.00459369  0.19730783     0.37390
C562        C  0.37372685  0.91714227  0.04261686     0.37300
N563        N  0.43361044  0.02215630  0.22883343    -0.42950
N564        N  0.37326517  0.89269575  0.01374087    -0.42950
C565        C  0.41937048  0.87708511  0.39628532     0.00640
C566        C  0.44785995  0.84303850  0.40770869    -0.11230
C567        C  0.46963565  0.84304852  0.44778145     0.02880
C568        C  0.46462033  0.87849867  0.47697094     0.00550
C569        C  0.43124580  0.90881768  0.46876736    -0.11170
C570        C  0.40872168  0.90857685  0.42876519     0.02760
H571        H  0.45425550  0.81674689  0.38480041     0.15740
H572        H  0.42595441  0.93539505  0.49161024     0.15740
C573        C  0.37605011  0.94188658  0.42186251     0.37390
C574        C  0.49883795  0.80724793  0.45707147     0.37300
N575        N  0.34966726  0.96850629  0.41670142    -0.42950
N576        N  0.52192004  0.77809531  0.46382550    -0.42950
C577        C  0.58545874  0.16773039  0.39862387     0.00640
C578        C  0.57944936  0.12768853  0.42036559    -0.11230
C579        C  0.55787683  0.12606719  0.46096528     0.02880
C580        C  0.54113345  0.16461902  0.47983087     0.00550
C581        C  0.55299811  0.20486364  0.46132106    -0.11170
C582        C  0.57482040  0.20680316  0.42106068     0.02760
H583        H  0.59020353  0.09756703  0.40507381     0.15740
H584        H  0.54211404  0.23487716  0.47660338     0.15740
C585        C  0.58587839  0.24939867  0.40375525     0.37390
C586        C  0.55257888  0.08461880  0.48266987     0.37300
N587        N  0.59499210  0.28355504  0.39012030    -0.42950
N588        N  0.54934689  0.05167907  0.50091355    -0.42950
C589        C  0.61612852  0.06750927  0.07951345     0.00640
C590        C  0.58057378  0.06866142  0.10937537    -0.11230
C591        C  0.58492727  0.08799423  0.15079791     0.02880
C592        C  0.62461837  0.10896666  0.16212679     0.00550
C593        C  0.65799380  0.11258260  0.13059010    -0.11170
C594        C  0.65418400  0.09232287  0.08971310     0.02760
H595        H  0.55094923  0.05017930  0.10230902     0.15740
H596        H  0.68799052  0.13024852  0.13850757     0.15740
C597        C  0.69163136  0.09514827  0.06082453     0.37390
C598        C  0.55046673  0.08134800  0.18274746     0.37300
N599        N  0.72266562  0.09897750  0.03909383    -0.42950
N600        N  0.52327087  0.07540470  0.20867997    -0.42950
C601        C  0.54209192  0.90550002  0.47742331     0.00640
C602        C  0.57530896  0.87459359  0.47061585    -0.11230
C603        C  0.59872081  0.87298442  0.43119555     0.02880
C604        C  0.59040949  0.90389719  0.39819909     0.00550
C605        C  0.56217246  0.93872883  0.40724066    -0.11170
C606        C  0.53790716  0.93970112  0.44637565     0.02760
H607        H  0.57929412  0.84836979  0.49318531     0.15740
H608        H  0.55673626  0.96343851  0.38256391     0.15740
C609        C  0.50569459  0.97381091  0.45166657     0.37390
C610        C  0.62951239  0.83772496  0.42471031     0.37300
N611        N  0.47955414  0.00099634  0.45514907    -0.42950
N612        N  0.65403319  0.80925567  0.42009206    -0.42950
C613        C  0.62823673  0.98763248  0.07831605     0.00640
C614        C  0.67056339  0.98487145  0.09629757    -0.11230
C615        C  0.67749127  0.96495716  0.13682058     0.02880
C616        C  0.64166233  0.94589593  0.15973893     0.00550
C617        C  0.60057160  0.94374692  0.13898762    -0.11170
C618        C  0.59352671  0.96447579  0.09888165     0.02760
H619        H  0.69758633  0.00227930  0.08072623     0.15740
H620        H  0.57305973  0.92777109  0.15521238     0.15740
C621        C  0.54929653  0.96457940  0.08212633     0.37390
C622        C  0.72152545  0.96580101  0.15431772     0.37300
N623        N  0.51310942  0.96397247  0.07058099    -0.42950
N624        N  0.75687875  0.96660818  0.16820171    -0.42950
C625        C  0.35697857  0.11048957  0.89851431     0.00640
C626        C  0.31814283  0.09341262  0.91721480    -0.11230
C627        C  0.31855368  0.07202131  0.95771405     0.02880
C628        C  0.35865569  0.06536113  0.97969194     0.00550
C629        C  0.39633913  0.08705894  0.96374102    -0.11170
C630        C  0.39595189  0.10937747  0.92367170     0.02760
H631        H  0.28718882  0.09661719  0.90008060     0.15740
H632        H  0.42734337  0.08257918  0.98034522     0.15740
C633        C  0.43677871  0.12824372  0.90821422     0.37390
C634        C  0.27729293  0.05728458  0.97602820     0.37300
N635        N  0.46955907  0.14349033  0.89606283    -0.42950
N636        N  0.24365157  0.04655628  0.99044677    -0.42950
C637        C  0.41510660  0.16671044  0.65984689     0.00640
C638        C  0.42285907  0.12623794  0.63944145    -0.11230
C639        C  0.44429370  0.12408736  0.59867203     0.02880
C640        C  0.45768367  0.16282426  0.57723004     0.00550
C641        C  0.44435497  0.20298665  0.59486727    -0.11170
C642        C  0.42440611  0.20539202  0.63611652     0.02760
H643        H  0.41409327  0.09623686  0.65622326     0.15740
H644        H  0.45338701  0.23297695  0.57831020     0.15740
C645        C  0.41465817  0.24822612  0.65345970     0.37390
C646        C  0.45457046  0.08179151  0.58048536     0.37300
N647        N  0.40706180  0.28260753  0.66731290    -0.42950
N648        N  0.46267736  0.04788208  0.56580588    -0.42950
C649        C  0.36744629  0.94583444  0.89144189     0.00640
C650        C  0.33134495  0.94364166  0.92008206    -0.11230
C651        C  0.33287239  0.96302526  0.96147255     0.02880
C652        C  0.37083604  0.98629012  0.97492562     0.00550
C653        C  0.40781541  0.98602242  0.94703423    -0.11170
C654        C  0.40673713  0.96556711  0.90598164     0.02760
H655        H  0.30165978  0.92656652  0.91005775     0.15740
H656        H  0.43599216  0.00587892  0.95539579     0.15740
C657        C  0.44499658  0.96870687  0.87802617     0.37390
C658        C  0.29522849  0.95749270  0.98985504     0.37300
N659        N  0.47574266  0.97135537  0.85570891    -0.42950
N660        N  0.26503404  0.95141855  0.01223709    -0.42950
C661        C  0.46039828  0.88547489  0.57452847     0.00640
C662        C  0.44131636  0.92408070  0.59060034    -0.11230
C663        C  0.41939089  0.92476921  0.63102958     0.02880
C664        C  0.41549285  0.88587838  0.65572270     0.00550
C665        C  0.42939177  0.84643104  0.63662094    -0.11170
C666        C  0.45084719  0.84592019  0.59607774     0.02760
H667        H  0.44775678  0.95465349  0.57382781     0.15740
H668        H  0.42380196  0.81577665  0.65356144     0.15740
C669        C  0.46266943  0.80438031  0.57726550     0.37390
C670        C  0.40445164  0.96636717  0.64756409     0.37300
N671        N  0.47090788  0.77060015  0.56236338    -0.42950
N672        N  0.39255876  0.99982929  0.66061894    -0.42950
C673        C  0.58367210  0.89752937  0.66087674     0.00640
C674        C  0.58643073  0.86100120  0.63343033    -0.11230
C675        C  0.56518117  0.85986918  0.59302292     0.02880
C676        C  0.54131993  0.89661696  0.57820520     0.00550
C677        C  0.54248330  0.93486109  0.60412303    -0.11170
C678        C  0.56181215  0.93498480  0.64579281     0.02760
H679        H  0.60399082  0.83228922  0.64445873     0.15740
H680        H  0.52373914  0.96311979  0.59409525     0.15740
C681        C  0.55295175  0.97100931  0.67488756     0.37390
C682        C  0.56612375  0.81897304  0.56965989     0.37300
N683        N  0.54466760  0.99911641  0.69882639    -0.42950
N684        N  0.56827850  0.78563210  0.55189204    -0.42950
C685        C  0.63943298  0.94588398  0.89760179     0.00640
C686        C  0.59686769  0.95146662  0.91449429    -0.11230
C687        C  0.59011376  0.97168329  0.95500006     0.02880
C688        C  0.62612864  0.98636968  0.98004086     0.00550
C689        C  0.66865053  0.97472720  0.96612580    -0.11170
C690        C  0.67568184  0.95589769  0.92479528     0.02760
H691        H  0.56861640  0.94199236  0.89507494     0.15740
H692        H  0.69675738  0.98480569  0.98542942     0.15740
C693        C  0.72044485  0.94818886  0.91089315     0.37390
C694        C  0.54563937  0.97914149  0.96898006     0.37300
N695        N  0.75638617  0.94216698  0.89981423    -0.42950
N696        N  0.50962558  0.98443671  0.97984823    -0.42950
C697        C  0.62896708  0.11094613  0.89774552     0.00640
C698        C  0.58901999  0.10867378  0.92130319    -0.11230
C699        C  0.58664645  0.08713339  0.96192909     0.02880
C700        C  0.62447417  0.06731069  0.97931968     0.00550
C701        C  0.66494301  0.07453739  0.95817629    -0.11170
C702        C  0.66761088  0.09574056  0.91805227     0.02760
H703        H  0.55945823  0.12242816  0.90742078     0.15740
H704        H  0.69446224  0.05985509  0.97101838     0.15740
C705        C  0.71077360  0.10089258  0.89859454     0.37390
C706        C  0.54518097  0.08490132  0.98490591     0.37300
N707        N  0.74543781  0.10501488  0.88324263    -0.42950
N708        N  0.51220793  0.08350607  0.00393074    -0.42950
C709        C  0.58164231  0.16641002  0.65916461     0.00640
C710        C  0.56974810  0.20568593  0.63882827    -0.11230
C711        C  0.55045668  0.20569939  0.59750785     0.02880
C712        C  0.53919934  0.16576711  0.57729542     0.00550
C713        C  0.55562775  0.12690190  0.59507358    -0.11170
C714        C  0.57823011  0.12715146  0.63490608     0.02760
H715        H  0.57558109  0.23661995  0.65521995     0.15740
H716        H  0.54839957  0.09600322  0.57932289     0.15740
C717        C  0.59738153  0.08690271  0.64987585     0.37390
C718        C  0.54096241  0.24714269  0.57735536     0.37300
N719        N  0.61419548  0.05509481  0.66127434    -0.42950
N720        N  0.53408695  0.28073766  0.56157178    -0.42950
C721        C  0.13969172  0.66038344  0.44415164     0.00640
C722        C  0.17808374  0.64174581  0.46151720    -0.11230
C723        C  0.17683614  0.60135489  0.48324143     0.02880
C724        C  0.13640459  0.57919689  0.48935102     0.00550
C725        C  0.09891900  0.59604686  0.46890396    -0.11170
C726        C  0.10015725  0.63575274  0.44612137     0.02760
H727        H  0.20926666  0.65894023  0.45850330     0.15740
H728        H  0.06750982  0.58007477  0.47381176     0.15740
C729        C  0.05959606  0.65120405  0.42742016     0.37390
C730        C  0.21722752  0.58415211  0.50064971     0.37300
N731        N  0.02695976  0.66317025  0.41235523    -0.42950
N732        N  0.24969997  0.57043545  0.51451446    -0.42950
C733        C  0.04112305  0.97725536  0.39757204     0.00640
C734        C  0.05873922  0.96495629  0.35696079    -0.11230
C735        C  0.08005547  0.92462932  0.35173993     0.02880
C736        C  0.08580800  0.89670765  0.38805418     0.00550
C737        C  0.07355444  0.91186883  0.42949892    -0.11170
C738        C  0.05103204  0.95144008  0.43437998     0.02760
H739        H  0.05163686  0.98458533  0.32844029     0.15740
H740        H  0.07924217  0.89156989  0.45787610     0.15740
C741        C  0.03488766  0.96290619  0.47709128     0.37390
C742        C  0.09491497  0.91240437  0.30862020     0.37300
N743        N  0.02159940  0.97162271  0.51139346    -0.42950
N744        N  0.10680121  0.90264617  0.27403365    -0.42950
C745        C  0.12932134  0.65689559  0.61624489     0.00640
C746        C  0.08889906  0.64156923  0.60030383    -0.11230
C747        C  0.08646433  0.60198654  0.57705778     0.02880
C748        C  0.12469029  0.57695982  0.56953174     0.00550
C749        C  0.16351390  0.58937361  0.59091781    -0.11170
C750        C  0.16627085  0.62907938  0.61368476     0.02760
H751        H  0.05978380  0.66154371  0.60399340     0.15740
H752        H  0.19296431  0.57006905  0.58653018     0.15740
C753        C  0.20758547  0.64063952  0.63387918     0.37390
C754        C  0.04510801  0.58891183  0.55851452     0.37300
N755        N  0.24062404  0.64977415  0.65026606    -0.42950
N756        N  0.01236261  0.57799640  0.54283441    -0.42950
C757        C  0.07579696  0.89354723  0.68105983     0.00640
C758        C  0.08462007  0.92157229  0.64574570    -0.11230
C759        C  0.06474805  0.96266686  0.64255994     0.02880
C760        C  0.03450398  0.97648584  0.67493536     0.00550
C761        C  0.02968581  0.95074552  0.71259019    -0.11170
C762        C  0.04979257  0.90972084  0.71597664     0.02760
H763        H  0.10624861  0.91089868  0.61960096     0.15740
H764        H  0.00667802  0.96096071  0.73777458     0.15740
C765        C  0.04196149  0.88486642  0.75526894     0.37390
C766        C  0.07444524  0.98820732  0.60421857     0.37300
N767        N  0.03569043  0.86521415  0.78695496    -0.42950
N768        N  0.08412973  0.00745483  0.57310727    -0.42950
C769        C  0.95682740  0.97804565  0.64918374     0.00640
C770        C  0.96588250  0.94697675  0.61609178    -0.11230
C771        C  0.94898786  0.90412511  0.61815884     0.02880
C772        C  0.92168107  0.89209188  0.65331823     0.00550
C773        C  0.90692805  0.92460488  0.68185328    -0.11170
C774        C  0.92208286  0.96771187  0.67834764     0.02760
H775        H  0.99040903  0.95453386  0.59152891     0.15740
H776        H  0.88128444  0.91675501  0.70543277     0.15740
C777        C  0.89364834  0.00048896  0.69643139     0.37390
C778        C  0.96277577  0.87247143  0.58601172     0.37300
N779        N  0.86731790  0.02452984  0.70936232    -0.42950
N780        N  0.97394802  0.84712650  0.56021997    -0.42950
C781        C  0.86484918  0.65694134  0.61498047     0.00640
C782        C  0.82740044  0.62973094  0.61574076    -0.11230
C783        C  0.82778272  0.58858535  0.59548712     0.02880
C784        C  0.86581200  0.57466071  0.57302078     0.00550
C785        C  0.90441516  0.59986305  0.57663087    -0.11170
C786        C  0.90429962  0.64081423  0.59705945     0.02760
H787        H  0.79735348  0.64120051  0.63110217     0.15740
H788        H  0.93329856  0.58983800  0.55875853     0.15740
C789        C  0.94355431  0.66756585  0.59474305     0.37390
C790        C  0.78768877  0.56310772  0.59485078     0.37300
N791        N  0.97479472  0.68929646  0.59260143    -0.42950
N792        N  0.75531910  0.54298653  0.59452061    -0.42950
C793        C  0.85456763  0.65851416  0.45308164     0.00640
C794        C  0.89209580  0.63179514  0.44963439    -0.11230
C795        C  0.89308814  0.59039577  0.46941213     0.02880
C796        C  0.85630877  0.57512947  0.49308503     0.00550
C797        C  0.81723814  0.59925772  0.49146581    -0.11170
C798        C  0.81614243  0.64076408  0.47265112     0.02760
H799        H  0.92122728  0.64376185  0.43279040     0.15740
H800        H  0.78844505  0.58753430  0.50895642     0.15740
C801        C  0.77520025  0.66444786  0.47521811     0.37390
C802        C  0.93267193  0.56486480  0.46690337     0.37300
N803        N  0.74232906  0.68328114  0.47752629    -0.42950
N804        N  0.96406618  0.54380383  0.46456275    -0.42950
C805        C  0.95978962  0.97661120  0.39367336     0.00640
C806        C  0.95702900  0.95199367  0.35511977    -0.11230
C807        C  0.93716778  0.91084802  0.35455706     0.02880
C808        C  0.91781097  0.89388162  0.39308846     0.00550
C809        C  0.91478892  0.92138109  0.42994930    -0.11170
C810        C  0.93538068  0.96270131  0.43032218     0.02760
H811        H  0.97424778  0.96323447  0.32611812     0.15740
H812        H  0.89746026  0.91018063  0.45888585     0.15740
C813        C  0.93166184  0.98993300  0.46859728     0.37390
C814        C  0.93804813  0.88688968  0.31387759     0.37300
N815        N  0.92822366  0.01196317  0.49915106    -0.42950
N816        N  0.93894153  0.86789497  0.28119491    -0.42950
C817        C  0.63355726  0.44245137  0.18679735     0.00640
C818        C  0.60326215  0.43018743  0.15429532    -0.11230
C819        C  0.56195160  0.45030061  0.15117437     0.02880
C820        C  0.55070574  0.48408264  0.18046947     0.00550
C821        C  0.57746397  0.49041199  0.21727989    -0.11170
C822        C  0.61894508  0.47097266  0.22022860     0.02760
H823        H  0.61248040  0.40612338  0.12994569     0.15740
H824        H  0.56836438  0.51508480  0.24110327     0.15740
C825        C  0.64624563  0.48309281  0.25677604     0.37390
C826        C  0.53391503  0.43794874  0.11539667     0.37300
N827        N  0.66791146  0.49305426  0.28614881    -0.42950
N828        N  0.51255098  0.42648914  0.08636441    -0.42950
C829        C  0.87148077  0.39918165  0.11848088     0.00640
C830        C  0.87753737  0.43609143  0.09241612    -0.11230
C831        C  0.91510459  0.44040287  0.06614259     0.02880
C832        C  0.94826030  0.40779803  0.06655291     0.00550
C833        C  0.94471202  0.37395091  0.09723920    -0.11170
C834        C  0.90628726  0.36897202  0.12252198     0.02760
H835        H  0.85143333  0.46003999  0.09018438     0.15740
H836        H  0.96979800  0.34891458  0.09826144     0.15740
C837        C  0.90281551  0.33201246  0.15159344     0.37390
C838        C  0.91623209  0.47641733  0.03580881     0.37300
N839        N  0.90011448  0.30245272  0.17499567    -0.42950
N840        N  0.91583672  0.50495424  0.01106630    -0.42950
C841        C  0.63192134  0.61406935  0.16824376     0.00640
C842        C  0.62678089  0.58759425  0.13177792    -0.11230
C843        C  0.58985917  0.56068344  0.12756947     0.02880
C844        C  0.55512663  0.56233245  0.15888875     0.00550
C845        C  0.55829675  0.59337605  0.19268557    -0.11170
C846        C  0.59675600  0.61842088  0.19812312     0.02760
H847        H  0.65385908  0.58465070  0.10868886     0.15740
H848        H  0.53313549  0.59444446  0.21780302     0.15740
C849        C  0.60003984  0.64723859  0.23532190     0.37390
C850        C  0.59361515  0.52724069  0.09484982     0.37300
N851        N  0.60268756  0.67038701  0.26510793    -0.42950
N852        N  0.60144801  0.50048339  0.06936230    -0.42950
C853        C  0.94887072  0.66937863  0.07192686     0.00640
C854        C  0.92959225  0.70870966  0.08504031    -0.11230
C855        C  0.89011188  0.70915182  0.10841251     0.02880
C856        C  0.86839147  0.66940253  0.11855366     0.00550
C857        C  0.89021664  0.62984711  0.10996574    -0.11170
C858        C  0.93040978  0.62984267  0.08696095     0.02760
H859        H  0.94361912  0.73939299  0.07425036     0.15740
H860        H  0.87513785  0.59907386  0.11950685     0.15740
C861        C  0.95156622  0.58922686  0.07667775     0.37390
C862        C  0.87280196  0.75110139  0.12152546     0.37300
N863        N  0.97014532  0.55767556  0.06752331    -0.42950
N864        N  0.85915593  0.78470957  0.13227343    -0.42950
C865        C  0.86720544  0.67067417  0.94660072     0.00640
C866        C  0.88857635  0.71026961  0.95659890    -0.11230
C867        C  0.92920414  0.71104022  0.97804911     0.02880
C868        C  0.94909320  0.67161494  0.99111886     0.00550
C869        C  0.92998100  0.63198182  0.97716090    -0.11170
C870        C  0.88937856  0.63115468  0.95527528     0.02760
H871        H  0.87310281  0.74098726  0.94823725     0.15740
H872        H  0.94483014  0.60137329  0.98678679     0.15740
C873        C  0.86957643  0.58931066  0.94551005     0.37390
C874        C  0.94822700  0.75300552  0.98856786     0.37300
N875        N  0.85342634  0.55583247  0.93786723    -0.42950
N876        N  0.96244454  0.78719470  0.99675879    -0.42950
C877        C  0.62777153  0.61589326  0.88923308     0.00640
C878        C  0.60896388  0.61037362  0.93068024    -0.11230
C879        C  0.56845926  0.58871346  0.93616463     0.02880
C880        C  0.54567521  0.57154920  0.89976913     0.00550
C881        C  0.56148066  0.58309642  0.85805614    -0.11170
C882        C  0.60229160  0.60427508  0.85246359     0.02760
H883        H  0.62669291  0.62173803  0.95920625     0.15740
H884        H  0.54407665  0.57146115  0.82947027     0.15740
C885        C  0.61722313  0.61326149  0.80858290     0.37390
C886        C  0.55177448  0.58530559  0.97986197     0.37300
N887        N  0.62903252  0.62057345  0.77337020    -0.42950
N888        N  0.54084755  0.58515744  0.01599718    -0.42950
C889        C  0.63316488  0.44862028  0.88870306     0.00640
C890        C  0.61323718  0.45343309  0.92989987    -0.11230
C891        C  0.57271922  0.47466752  0.93431161     0.02880
C892        C  0.55084736  0.49081883  0.89741956     0.00550
C893        C  0.56837566  0.48193103  0.85596617    -0.11170
C894        C  0.60943773  0.46175350  0.85127625     0.02760
H895        H  0.63002522  0.44210883  0.95885661     0.15740
H896        H  0.55157625  0.49389743  0.82728293     0.15740
C897        C  0.62637352  0.45552611  0.80760753     0.37390
C898        C  0.55436976  0.48152946  0.97705425     0.37300
N899        N  0.63982920  0.45071434  0.77253977    -0.42950
N900        N  0.53710192  0.48715122  0.01025606    -0.42950
C901        C  0.87073500  0.38725257  0.93969266     0.00640
C902        C  0.88330781  0.35188471  0.96587905    -0.11230
C903        C  0.92310510  0.35250944  0.98843533     0.02880
C904        C  0.95026074  0.39009347  0.98723302     0.00550
C905        C  0.94141962  0.42235143  0.95610502    -0.11170
C906        C  0.90203594  0.42113675  0.93210902     0.02760
H907        H  0.86165980  0.32379043  0.96950929     0.15740
H908        H  0.96309788  0.45052808  0.95356073     0.15740
C909        C  0.89441219  0.45569841  0.90114118     0.37390
C910        C  0.93441773  0.31492193  0.01444850     0.37300
N911        N  0.88873401  0.48315818  0.87589197    -0.42950
N912        N  0.94338697  0.28459642  0.03504089    -0.42950
loop_ 
_geom_bond_atom_site_label_1 
_geom_bond_atom_site_label_2 
_geom_bond_distance 
_geom_bond_site_symmetry_2 
_ccdc_geom_bond_type 
O1            C4   1.272       .  A
O1           Cd6   2.437       .  S
C2           O11   1.261       .  A
C2            O7   1.273       .  A
C2          C262   1.449       .  S
O3            C9   1.274       .  A
O3           Cd6   2.437       .  S
C4           O12   1.271       .  A
C4          C889   1.486       .  S
C5           O10   1.273       .  A
C5            O8   1.261       .  A
C5          C109   1.455       .  S
Cd6          O13   2.448       .  S
Cd6          O12   2.443       .  S
Cd6          O11   2.388       .  S
Cd6           O7   2.446       .  S
Cd6          O10   2.462       .  S
Cd6           O8   2.406       .  S
C9           O13   1.270       .  A
C9          C901   1.493       .  S
O14          C17   1.273       .  A
O14         Cd19   2.461       .  S
C15          O24   1.261       .  A
C15          O20   1.274       .  A
C15          C67   1.455       .  S
O16          C22   1.273       .  A
O16         Cd19   2.460       .  S
C17          O25   1.271       .  A
C17         C877   1.491       .  S
C18          O23   1.273       .  A
C18          O21   1.271       .  A
C18         C865   1.491       .  S
Cd19         O26   2.407       .  S
Cd19         O25   2.456       .  S
Cd19         O24   2.407       .  S
Cd19         O20   2.459       .  S
Cd19         O23   2.447       .  S
Cd19         O21   2.468       .  S
C22          O26   1.261       .  A
C22         C126   1.455       .  S
O27          C30   1.273       .  A
O27         Cd32   2.450       .  S
C28          O37   1.269       .  A
C28          O33   1.271       .  A
C28         C841   1.469       .  S
O29          C35   1.272       .  A
O29         Cd32   2.452       .  S
C30          O38   1.261       .  A
C30          C56   1.450       .  S
C31          O36   1.272       .  A
C31          O34   1.271       .  A
C31         C856   1.483       .  S
Cd32         O39   2.407       .  S
Cd32         O38   2.390       .  S
Cd32         O37   2.424       .  S
Cd32         O33   2.428       .  S
Cd32         O36   2.404       .  S
Cd32         O34   2.468       .  S
C35          O39   1.260       .  A
C35         C161   1.452       .  S
O40          C43   1.272       .  A
O40         Cd45   2.440       .  S
C41          O50   1.260       .  A
C41          O46   1.272       .  A
C41         C288   1.449       .  S
O42          C48   1.274       .  A
O42         Cd45   2.472       .  S
C43          O51   1.272       .  A
C43         C817   1.493       .  S
C44          O49   1.271       .  A
C44          O47   1.270       .  A
C44         C829   1.478       .  S
Cd45         O52   2.393       .  S
Cd45         O51   2.440       .  S
Cd45         O50   2.399       .  S
Cd45         O46   2.445       .  S
Cd45         O49   2.443       .  S
Cd45         O47   2.459       .  S
C48          O52   1.261       .  A
C48         C178   1.455       .  S
O53          C56   1.273       .  A
O53         Cd58   2.445       .  S
C54          O63   1.270       .  A
C54          O59   1.273       .  A
C54         C808   1.485       .  S
O55          C61   1.274       .  A
O55         Cd58   2.455       .  S
C56          O64   1.262       .  A
C57          O62   1.273       .  A
C57          O60   1.270       .  A
C57         C793   1.488       .  S
Cd58         O65   2.404       .  S
Cd58         O64   2.396       .  S
Cd58         O63   2.442       .  S
Cd58         O59   2.410       .  S
Cd58         O62   2.423       .  S
Cd58         O60   2.440       .  S
C61          O65   1.262       .  A
C61         C158   1.454       .  S
O66          C69   1.273       .  A
O66         Cd71   2.433       .  S
C67          O76   1.261       .  A
C67          O72   1.275       .  A
O68          C74   1.274       .  A
O68         Cd71   2.462       .  S
C69          O77   1.270       .  A
C69         C772   1.474       .  S
C70          O75   1.273       .  A
C70          O73   1.271       .  A
C70         C781   1.478       .  S
Cd71         O78   2.420       .  S
Cd71         O77   2.450       .  S
Cd71         O76   2.400       .  S
Cd71         O72   2.463       .  S
Cd71         O75   2.430       .  S
Cd71         O73   2.438       .  S
C74          O78   1.262       .  A
C74         C119   1.459       .  S
O79          C82   1.273       .  A
O79         Cd84   2.445       .  S
C80          O89   1.272       .  A
C80          O85   1.272       .  A
C80         C757   1.494       .  S
O81          C87   1.274       .  A
O81         Cd84   2.471       .  S
C82          O90   1.261       .  A
C82         C213   1.451       .  S
C83          O88   1.272       .  A
C83          O86   1.270       .  A
C83         C745   1.485       .  S
Cd84         O91   2.410       .  S
Cd84         O90   2.402       .  S
Cd84         O89   2.436       .  S
Cd84         O85   2.450       .  S
Cd84         O88   2.444       .  S
Cd84         O86   2.471       .  S
C87          O91   1.261       .  A
C87         C132   1.457       .  S
O92          C95   1.273       .  A
O92         Cd97   2.452       .  S
C93         O102   1.261       .  A
C93          O98   1.274       .  A
C93         C243   1.454       .  S
O94         C100   1.274       .  A
O94         Cd97   2.450       .  S
C95         O103   1.271       .  A
C95         C736   1.486       .  S
C96         O101   1.273       .  A
C96          O99   1.271       .  A
C96         C721   1.494       .  S
Cd97        O104   2.411       .  S
Cd97        O103   2.451       .  S
Cd97        O102   2.400       .  S
Cd97         O98   2.460       .  S
Cd97        O101   2.456       .  S
Cd97         O99   2.448       .  S
C100        O104   1.261       .  A
C100        C184   1.455       .  S
O105        C108   1.273       .  A
O105       Cd110   2.419       .  S
C106        O115   1.261       .  A
C106        O111   1.274       .  A
C106        C265   1.454       .  S
O107        C113   1.274       .  A
O107       Cd110   2.434       .  S
C108        O116   1.271       .  A
C108        C697   1.489       .  S
C109        O114   1.274       .  A
C109        O112   1.262       .  A
Cd110       O117   2.439       .  S
Cd110       O116   2.471       .  S
Cd110       O115   2.399       .  S
Cd110       O111   2.462       .  S
Cd110       O114   2.454       .  S
Cd110       O112   2.403       .  S
C113        O117   1.270       .  A
C113        C709   1.487       .  S
O118        C121   1.274       .  A
O118       Cd123   2.463       .  S
C119        O128   1.261       .  A
C119        O124   1.274       .  A
O120        C126   1.273       .  A
O120       Cd123   2.461       .  S
C121        O129   1.271       .  A
C121        C685   1.489       .  S
C122        O127   1.271       .  A
C122        O125   1.272       .  A
C122        C673   1.485       .  S
Cd123       O130   2.407       .  S
Cd123       O129   2.440       .  S
Cd123       O128   2.408       .  S
Cd123       O124   2.477       .  S
Cd123       O127   2.438       .  S
Cd123       O125   2.481       .  S
C126        O130   1.261       .  A
O131        C134   1.272       .  A
O131       Cd136   2.441       .  S
C132        O141   1.261       .  A
C132        O137   1.274       .  A
O133        C139   1.273       .  A
O133       Cd136   2.437       .  S
C134        O142   1.270       .  A
C134        C649   1.482       .  S
C135        O140   1.273       .  A
C135        O138   1.261       .  A
C135        C210   1.455       .  S
Cd136       O143   2.450       .  S
Cd136       O142   2.465       .  S
Cd136       O141   2.412       .  S
Cd136       O137   2.466       .  S
Cd136       O140   2.460       .  S
Cd136       O138   2.406       .  S
C139        O143   1.271       .  A
C139        C664   1.488       .  S
O144        C147   1.273       .  A
O144       Cd149   2.446       .  S
C145        O154   1.262       .  A
C145        O150   1.274       .  A
C145        C223   1.455       .  S
O146        C152   1.275       .  A
O146       Cd149   2.463       .  S
C147        O155   1.271       .  A
C147        C637   1.491       .  S
C148        O153   1.274       .  A
C148        O151   1.271       .  A
C148        C625   1.497       .  S
Cd149       O156   2.420       .  S
Cd149       O155   2.469       .  S
Cd149       O154   2.408       .  S
Cd149       O150   2.458       .  S
Cd149       O153   2.468       .  S
Cd149       O151   2.464       .  S
C152        O156   1.261       .  A
C152        C278   1.459       .  S
O157        C160   1.274       .  A
O157       Cd162   2.445       .  S
C158        O167   1.261       .  A
C158        O163   1.275       .  A
O159        C165   1.272       .  A
O159       Cd162   2.433       .  S
C160        O168   1.271       .  A
C160        C616   1.490       .  S
C161        O166   1.275       .  A
C161        O164   1.263       .  A
Cd162       O169   2.461       .  S
Cd162       O168   2.434       .  S
Cd162       O167   2.390       .  S
Cd162       O163   2.459       .  S
Cd162       O166   2.451       .  S
Cd162       O164   2.392       .  S
C165        O169   1.270       .  A
C165        C604   1.477       .  S
O170        C173   1.273       .  A
O170       Cd175   2.450       .  S
C171        O180   1.261       .  A
C171        O176   1.276       .  A
C171        C295   1.459       .  S
O172        C178   1.273       .  A
O172       Cd175   2.446       .  S
C173        O181   1.270       .  A
C173        C592   1.483       .  S
C174        O179   1.273       .  A
C174        O177   1.272       .  A
C174        C577   1.485       .  S
Cd175       O182   2.417       .  S
Cd175       O181   2.464       .  S
Cd175       O180   2.402       .  S
Cd175       O176   2.474       .  S
Cd175       O179   2.422       .  S
Cd175       O177   2.451       .  S
C178        O182   1.262       .  A
O183        C186   1.274       .  A
O183       Cd188   2.477       .  S
C184        O193   1.261       .  A
C184        O189   1.276       .  A
O185        C191   1.274       .  A
O185       Cd188   2.444       .  S
C186        O194   1.268       .  A
C186        C553   1.481       .  S
C187        O192   1.274       .  A
C187        O190   1.270       .  A
C187        C565   1.495       .  S
Cd188       O195   2.418       .  S
Cd188       O194   2.445       .  S
Cd188       O193   2.390       .  S
Cd188       O189   2.467       .  S
Cd188       O192   2.450       .  S
Cd188       O190   2.447       .  S
C191        O195   1.264       .  A
C191        C236   1.456       .  S
O196        C199   1.275       .  A
O196       Cd201   2.464       .  S
C197        O206   1.271       .  A
C197        O202   1.274       .  A
C197        C541   1.491       .  S
O198        C204   1.274       .  A
O198       Cd201   2.451       .  S
C199        O207   1.262       .  A
C199        C249   1.456       .  S
C200        O205   1.274       .  A
C200        O203   1.271       .  A
C200        C532   1.497       .  S
Cd201       O208   2.396       .  S
Cd201       O207   2.400       .  S
Cd201       O206   2.465       .  S
Cd201       O202   2.451       .  S
Cd201       O205   2.444       .  S
Cd201       O203   2.459       .  S
C204        O208   1.261       .  A
C204        C304   1.451       .  S
O209        C212   1.274       .  A
O209       Cd214   2.419       .  S
C210        O219   1.261       .  A
C210        O215   1.273       .  A
O211        C217   1.272       .  A
O211       Cd214   2.438       .  S
C212        O220   1.271       .  A
C212        C517   1.491       .  S
C213        O218   1.275       .  A
C213        O216   1.262       .  A
Cd214       O221   2.438       .  S
Cd214       O220   2.459       .  S
Cd214       O219   2.407       .  S
Cd214       O215   2.458       .  S
Cd214       O218   2.454       .  S
Cd214       O216   2.382       .  S
C217        O221   1.269       .  A
C217        C508   1.475       .  S
O222        C225   1.272       .  A
O222       Cd227   2.438       .  S
C223        O232   1.261       .  A
C223        O228   1.273       .  A
O224        C230   1.272       .  A
O224       Cd227   2.443       .  S
C225        O233   1.270       .  A
C225        C481   1.483       .  S
C226        O231   1.272       .  A
C226        O229   1.272       .  A
C226        C493   1.491       .  S
Cd227       O234   2.381       .  S
Cd227       O233   2.460       .  S
Cd227       O232   2.405       .  S
Cd227       O228   2.467       .  S
Cd227       O231   2.444       .  S
Cd227       O229   2.418       .  S
C230        O234   1.260       .  A
C230        C277   1.445       .  S
O235        C238   1.272       .  A
O235       Cd240   2.429       .  S
C236        O245   1.261       .  A
C236        O241   1.274       .  A
O237        C243   1.274       .  A
O237       Cd240   2.458       .  S
C238        O246   1.271       .  A
C238        C469   1.481       .  S
C239        O244   1.273       .  A
C239        O242   1.271       .  A
C239        C460   1.486       .  S
Cd240       O247   2.404       .  S
Cd240       O246   2.468       .  S
Cd240       O245   2.394       .  S
Cd240       O241   2.470       .  S
Cd240       O244   2.432       .  S
Cd240       O242   2.462       .  S
C243        O247   1.261       .  A
O248        C251   1.272       .  A
O248       Cd253   2.439       .  S
C249        O258   1.260       .  A
C249        O254   1.272       .  A
O250        C256   1.273       .  A
O250       Cd253   2.451       .  S
C251        O259   1.271       .  A
C251        C445   1.495       .  S
C252        O257   1.273       .  A
C252        O255   1.261       .  A
C252        C301   1.450       .  S
Cd253       O260   2.427       .  S
Cd253       O259   2.464       .  S
Cd253       O258   2.415       .  S
Cd253       O254   2.462       .  S
Cd253       O257   2.447       .  S
Cd253       O255   2.397       .  S
C256        O260   1.269       .  A
C256        C433   1.487       .  S
O261        C264   1.272       .  A
O261       Cd266   2.406       .  S
C262        O271   1.262       .  A
C262        O267   1.274       .  A
O263        C269   1.273       .  A
O263       Cd266   2.415       .  S
C264        O272   1.270       .  A
C264        C409   1.478       .  S
C265        O270   1.274       .  A
C265        O268   1.261       .  A
Cd266       O273   2.437       .  S
Cd266       O272   2.444       .  S
Cd266       O271   2.392       .  S
Cd266       O267   2.440       .  S
Cd266       O270   2.452       .  S
Cd266       O268   2.408       .  S
C269        O273   1.270       .  A
C269        C421   1.484       .  S
O274        C277   1.273       .  A
O274       Cd279   2.432       .  S
C275        O284   1.273       .  A
C275        O280   1.272       .  A
C275        C400   1.493       .  S
O276        C282   1.273       .  A
O276       Cd279   2.458       .  S
C277        O285   1.261       .  A
C278        O283   1.276       .  A
C278        O281   1.261       .  A
Cd279       O286   2.469       .  S
Cd279       O285   2.385       .  S
Cd279       O284   2.444       .  S
Cd279       O280   2.436       .  S
Cd279       O283   2.484       .  S
Cd279       O281   2.399       .  S
C282        O286   1.270       .  A
C282        C388   1.486       .  S
O287        C290   1.271       .  A
O287       Cd292   2.429       .  S
C288        O297   1.261       .  A
C288        O293   1.274       .  A
O289        C295   1.274       .  A
O289       Cd292   2.465       .  S
C290        O298   1.271       .  A
C290        C361   1.474       .  S
C291        O296   1.273       .  A
C291        O294   1.271       .  A
C291        C373   1.483       .  S
Cd292       O299   2.417       .  S
Cd292       O298   2.444       .  S
Cd292       O297   2.383       .  S
Cd292       O293   2.450       .  S
Cd292       O296   2.446       .  S
Cd292       O294   2.448       .  S
C295        O299   1.261       .  A
O300        C303   1.272       .  A
O300       Cd305   2.446       .  S
C301        O310   1.261       .  A
C301        O306   1.272       .  A
O302        C308   1.272       .  A
O302       Cd305   2.454       .  S
C303        O311   1.270       .  A
C303        C337   1.492       .  S
C304        O309   1.273       .  A
C304        O307   1.260       .  A
Cd305       O312   2.431       .  S
Cd305       O311   2.433       .  S
Cd305       O310   2.392       .  S
Cd305       O306   2.452       .  S
Cd305       O309   2.455       .  S
Cd305       O307   2.398       .  S
C308        O312   1.271       .  A
C308        C349   1.494       .  S
C313        C314   1.370       .  D
C313        C880   1.504       .  S
C313        C892   1.489       .  S
C314        C496   1.503       .  S
C314        C505   1.499       .  S
C315        C316   1.368       .  D
C315        C820   1.497       .  S
C315        C844   1.500       .  S
C316        C436   1.491       .  S
C316        C457   1.497       .  S
C317        C318   1.369       .  D
C317        C661   1.492       .  S
C317        C676   1.503       .  S
C318        C568   1.497       .  S
C318        C601   1.501       .  S
C319        C320   1.361       .  D
C319        C640   1.493       .  S
C319        C712   1.490       .  S
C320        C544   1.494       .  S
C320        C580   1.489       .  S
C321        C322   1.358       .  D
C321        C784   1.490       .  S
C321        C796   1.488       .  S
C322        C376   1.494       .  S
C322        C424   1.485       .  S
C323        C324   1.369       .  D
C323        C724   1.496       .  S
C323        C748   1.497       .  S
C324        C352   1.500       .  S
C324        C385   1.501       .  S
C325        C326   1.361       .  D
C325        C340   1.491       .  S
C325        C364   1.497   1_455  S
C326        C733   1.495   1_545  S
C326        C805   1.489   1_445  S
C327        C328   1.371       .  D
C327        C760   1.498   1_645  S
C327        C769   1.513   1_545  S
C328        C397   1.500   1_655  S
C328        C412   1.486       .  S
C329        C330   1.381       .  D
C329        C628   1.504   1_554  S
C329        C652   1.493   1_544  S
C330        C529   1.503       .  S
C330        C556   1.540   1_545  S
C331        C332   1.368       .  D
C331        C688   1.499   1_544  S
C331        C700   1.495   1_554  S
C332        C589   1.502       .  S
C332        C613   1.493   1_545  S
C333        C334   1.364   1_655  D
C333        C832   1.497       .  S
C333        C904   1.495   1_554  S
C334        C448   1.499       .  S
C334        C484   1.493   1_554  S
C335        C336   1.364   1_455  D
C335        C472   1.498       .  S
C335        C520   1.491   1_554  S
C336        C853   1.488       .  S
C336        C868   1.496   1_554  S
C337        C338   1.403       .  A
C337        C342   1.415       .  A
C338        C339   1.399       .  A
C338        H343   1.084       .  S
C339        C340   1.411       .  A
C339        C346   1.443       .  S
C340        C341   1.403       .  A
C341        C342   1.405       .  A
C341        H344   1.085       .  S
C342        C345   1.435       .  S
C345        N347   1.154       .  T
C346        N348   1.157       .  T
C349        C350   1.407       .  A
C349        C354   1.416       .  A
C350        C351   1.402       .  A
C350        H355   1.084       .  S
C351        C352   1.410       .  A
C351        C358   1.438       .  S
C352        C353   1.408       .  A
C353        C354   1.402       .  A
C353        H356   1.085       .  S
C354        C357   1.444       .  S
C357        N359   1.157       .  T
C358        N360   1.156       .  T
C361        C362   1.404       .  A
C361        C366   1.402       .  A
C362        C363   1.403       .  A
C362        H367   1.085       .  S
C363        C364   1.412       .  A
C363        C370   1.441       .  S
C364        C365   1.412       .  A
C365        C366   1.400       .  A
C365        H368   1.084       .  S
C366        C369   1.443       .  S
C369        N371   1.157       .  T
C370        N372   1.157       .  T
C373        C374   1.407       .  A
C373        C378   1.408       .  A
C374        C375   1.405       .  A
C374        H379   1.084       .  S
C375        C376   1.410       .  A
C375        C382   1.442       .  S
C376        C377   1.406       .  A
C377        C378   1.401       .  A
C377        H380   1.079       .  S
C378        C381   1.444       .  S
C381        N383   1.157       .  T
C382        N384   1.157       .  T
C385        C386   1.404       .  A
C385        C390   1.417       .  A
C386        C387   1.405       .  A
C386        H391   1.083       .  S
C387        C388   1.415       .  A
C387        C394   1.444       .  S
C388        C389   1.400       .  A
C389        C390   1.405       .  A
C389        H392   1.085       .  S
C390        C393   1.438       .  S
C393        N395   1.155       .  T
C394        N396   1.157       .  T
C397        C398   1.403       .  A
C397        C402   1.414       .  A
C398        C399   1.400       .  A
C398        H403   1.077       .  S
C399        C400   1.410       .  A
C399        C406   1.437       .  S
C400        C401   1.405       .  A
C401        C402   1.404       .  A
C401        H404   1.084       .  S
C402        C405   1.439       .  S
C405        N407   1.157       .  T
C406        N408   1.155       .  T
C409        C410   1.400       .  A
C409        C414   1.411       .  A
C410        C411   1.392       .  A
C410        H415   1.085       .  S
C411        C412   1.413       .  A
C411        C418   1.444       .  S
C412        C413   1.406       .  A
C413        C414   1.405       .  A
C413        H416   1.085       .  S
C414        C417   1.439       .  S
C417        N419   1.156       .  T
C418        N420   1.158       .  T
C421        C422   1.409       .  A
C421        C426   1.415       .  A
C422        C423   1.405       .  A
C422        H427   1.084       .  S
C423        C424   1.408       .  A
C423        C430   1.442       .  S
C424        C425   1.401       .  A
C425        C426   1.394       .  A
C425        H428   1.084       .  S
C426        C429   1.445       .  S
C429        N431   1.157       .  T
C430        N432   1.157       .  T
C433        C434   1.408       .  A
C433        C438   1.413       .  A
C434        C435   1.403       .  A
C434        H439   1.085       .  S
C435        C436   1.410       .  A
C435        C442   1.443       .  S
C436        C437   1.404       .  A
C437        C438   1.399       .  A
C437        H440   1.081       .  S
C438        C441   1.444       .  S
C441        N443   1.157       .  T
C442        N444   1.157       .  T
C445        C446   1.410       .  A
C445        C450   1.416       .  A
C446        C447   1.408       .  A
C446        H451   1.084       .  S
C447        C448   1.408       .  A
C447        C454   1.436       .  S
C448        C449   1.406       .  A
C449        C450   1.398       .  A
C449        H452   1.084       .  S
C450        C453   1.445       .  S
C453        N455   1.157       .  T
C454        N456   1.155       .  T
C457        C458   1.403       .  A
C457        C462   1.409       .  A
C458        C459   1.401       .  A
C458        H463   1.083       .  S
C459        C460   1.415       .  A
C459        C466   1.444       .  S
C460        C461   1.403       .  A
C461        C462   1.405       .  A
C461        H464   1.084       .  S
C462        C465   1.432       .  S
C465        N467   1.153       .  T
C466        N468   1.157       .  T
C469        C470   1.404       .  A
C469        C474   1.407       .  A
C470        C471   1.401       .  A
C470        H475   1.085       .  S
C471        C472   1.411       .  A
C471        C478   1.441       .  S
C472        C473   1.411       .  A
C473        C474   1.405       .  A
C473        H476   1.082       .  S
C474        C477   1.443       .  S
C477        N479   1.157       .  T
C478        N480   1.157       .  T
C481        C482   1.401       .  A
C481        C486   1.416       .  A
C482        C483   1.402       .  A
C482        H487   1.084       .  S
C483        C484   1.413       .  A
C483        C490   1.442       .  S
C484        C485   1.402       .  A
C485        C486   1.403       .  A
C485        H488   1.085       .  S
C486        C489   1.444       .  S
C489        N491   1.157       .  T
C490        N492   1.156   1_556  T
C493        C494   1.404       .  A
C493        C498   1.415       .  A
C494        C495   1.400       .  A
C494        H499   1.085       .  S
C495        C496   1.413       .  A
C495        C502   1.437       .  S
C496        C497   1.409       .  A
C497        C498   1.402       .  A
C497        H500   1.085       .  S
C498        C501   1.443       .  S
C501        N503   1.157       .  T
C502        N504   1.157       .  T
C505        C506   1.406       .  A
C505        C510   1.423       .  A
C506        C507   1.403       .  A
C506        H511   1.083       .  S
C507        C508   1.411       .  A
C507        C514   1.444       .  S
C508        C509   1.394       .  A
C509        C510   1.399       .  A
C509        H512   1.085       .  S
C510        C513   1.441       .  S
C513        N515   1.157   1_556  T
C514        N516   1.157       .  T
C517        C518   1.403       .  A
C517        C522   1.418       .  A
C518        C519   1.395       .  A
C518        H523   1.085       .  S
C519        C520   1.412       .  A
C519        C526   1.442   1_556  S
C520        C521   1.406       .  A
C521        C522   1.408       .  A
C521        H524   1.085       .  S
C522        C525   1.443       .  S
C525        N527   1.157       .  T
C526        N528   1.157       .  T
C529        C530   1.406       .  A
C529        C534   1.411       .  A
C530        C531   1.409       .  A
C530        H535   1.084       .  S
C531        C532   1.421       .  A
C531        C538   1.443       .  S
C532        C533   1.405       .  A
C533        C534   1.399       .  A
C533        H536   1.084       .  S
C534        C537   1.442       .  S
C537        N539   1.157       .  T
C538        N540   1.157       .  T
C541        C542   1.405       .  A
C541        C546   1.414       .  A
C542        C543   1.401       .  A
C542        H547   1.085       .  S
C543        C544   1.412       .  A
C543        C550   1.443       .  S
C544        C545   1.407       .  A
C545        C546   1.408       .  A
C545        H548   1.083       .  S
C546        C549   1.443       .  S
C549        N551   1.157       .  T
C550        N552   1.157       .  T
C553        C554   1.402       .  A
C553        C558   1.399       .  A
C554        C555   1.410       .  A
C554        H559   1.085       .  S
C555        C556   1.422       .  A
C555        C562   1.436       .  S
C556        C557   1.423   1_565  A
C557        C558   1.402   1_545  A
C557        H560   1.080       .  S
C558        C561   1.444   1_565  S
C561        N563   1.157       .  T
C562        N564   1.158       .  T
C565        C566   1.404       .  A
C565        C570   1.421       .  A
C566        C567   1.398       .  A
C566        H571   1.084       .  S
C567        C568   1.413       .  A
C567        C574   1.443       .  S
C568        C569   1.402       .  A
C569        C570   1.407       .  A
C569        H572   1.084       .  S
C570        C573   1.443       .  S
C573        N575   1.157       .  T
C574        N576   1.157       .  T
C577        C578   1.406       .  A
C577        C582   1.416       .  A
C578        C579   1.404       .  A
C578        H583   1.084       .  S
C579        C580   1.409       .  A
C579        C586   1.440       .  S
C580        C581   1.401       .  A
C581        C582   1.399       .  A
C581        H584   1.082       .  S
C582        C585   1.445       .  S
C585        N587   1.157       .  T
C586        N588   1.156       .  T
C589        C590   1.413       .  A
C589        C594   1.415       .  A
C590        C591   1.406       .  A
C590        H595   1.083       .  S
C591        C592   1.407       .  A
C591        C598   1.443       .  S
C592        C593   1.401       .  A
C593        C594   1.402       .  A
C593        H596   1.085       .  S
C594        C597   1.440       .  S
C597        N599   1.157       .  T
C598        N600   1.157       .  T
C601        C602   1.401       .  A
C601        C606   1.422       .  A
C602        C603   1.400       .  A
C602        H607   1.068       .  S
C603        C604   1.410       .  A
C603        C610   1.444       .  S
C604        C605   1.398       .  A
C605        C606   1.405       .  A
C605        H608   1.084       .  S
C606        C609   1.443       .  S
C609        N611   1.157   1_565  T
C610        N612   1.157       .  T
C613        C614   1.405       .  A
C613        C618   1.413       .  A
C614        C615   1.402       .  A
C614        H619   1.085   1_565  S
C615        C616   1.416       .  A
C615        C622   1.444       .  S
C616        C617   1.405       .  A
C617        C618   1.402       .  A
C617        H620   1.085       .  S
C618        C621   1.441       .  S
C621        N623   1.157       .  T
C622        N624   1.157       .  T
C625        C626   1.407       .  A
C625        C630   1.417       .  A
C626        C627   1.404       .  A
C626        H631   1.084       .  S
C627        C628   1.411       .  A
C627        C634   1.441       .  S
C628        C629   1.406       .  A
C629        C630   1.406       .  A
C629        H632   1.082       .  S
C630        C633   1.443       .  S
C633        N635   1.157       .  T
C634        N636   1.157       .  T
C637        C638   1.406       .  A
C637        C642   1.416       .  A
C638        C639   1.408       .  A
C638        H643   1.084       .  S
C639        C640   1.413       .  A
C639        C646   1.443       .  S
C640        C641   1.402       .  A
C641        C642   1.401       .  A
C641        H644   1.082       .  S
C642        C645   1.445       .  S
C645        N647   1.157       .  T
C646        N648   1.157       .  T
C649        C650   1.402       .  A
C649        C654   1.409       .  A
C650        C651   1.400       .  A
C650        H655   1.085       .  S
C651        C652   1.415       .  A
C651        C658   1.442       .  S
C652        C653   1.408       .  A
C653        C654   1.405       .  A
C653        H656   1.078   1_565  S
C654        C657   1.443       .  S
C657        N659   1.157       .  T
C658        N660   1.157   1_556  T
C661        C662   1.406       .  A
C661        C666   1.407       .  A
C662        C663   1.404       .  A
C662        H667   1.084       .  S
C663        C664   1.415       .  A
C663        C670   1.443       .  S
C664        C665   1.406       .  A
C665        C666   1.400       .  A
C665        H668   1.085       .  S
C666        C669   1.441       .  S
C669        N671   1.157       .  T
C670        N672   1.157       .  T
C673        C674   1.400       .  A
C673        C678   1.407       .  A
C674        C675   1.400       .  A
C674        H679   1.085       .  S
C675        C676   1.418       .  A
C675        C682   1.441       .  S
C676        C677   1.413       .  A
C677        C678   1.409       .  A
C677        H680   1.084       .  S
C678        C681   1.442       .  S
C681        N683   1.157       .  T
C682        N684   1.157       .  T
C685        C686   1.401       .  A
C685        C690   1.416       .  A
C686        C687   1.401       .  A
C686        H691   1.085       .  S
C687        C688   1.411       .  A
C687        C694   1.435       .  S
C688        C689   1.406       .  A
C689        C690   1.406       .  A
C689        H692   1.084       .  S
C690        C693   1.443       .  S
C693        N695   1.157       .  T
C694        N696   1.154       .  T
C697        C698   1.410       .  A
C697        C702   1.413       .  A
C698        C699   1.411       .  A
C698        H703   1.083       .  S
C699        C700   1.410       .  A
C699        C706   1.441       .  S
C700        C701   1.403       .  A
C701        C702   1.393       .  A
C701        H704   1.081       .  S
C702        C705   1.445       .  S
C705        N707   1.157       .  T
C706        N708   1.157   1_556  T
C709        C710   1.404       .  A
C709        C714   1.415       .  A
C710        C711   1.398       .  A
C710        H715   1.085       .  S
C711        C712   1.410       .  A
C711        C718   1.442       .  S
C712        C713   1.404       .  A
C713        C714   1.404       .  A
C713        H716   1.082       .  S
C714        C717   1.441       .  S
C717        N719   1.157       .  T
C718        N720   1.157       .  T
C721        C722   1.408       .  A
C721        C726   1.415       .  A
C722        C723   1.405       .  A
C722        H727   1.084       .  S
C723        C724   1.411       .  A
C723        C730   1.443       .  S
C724        C725   1.404       .  A
C725        C726   1.402       .  A
C725        H728   1.079       .  S
C726        C729   1.444       .  S
C729        N731   1.157       .  T
C730        N732   1.157       .  T
C733        C734   1.404       .  A
C733        C738   1.413       .  A
C734        C735   1.405       .  A
C734        H739   1.085       .  S
C735        C736   1.416       .  A
C735        C742   1.444       .  S
C736        C737   1.401       .  A
C737        C738   1.401       .  A
C737        H740   1.085       .  S
C738        C741   1.439       .  S
C741        N743   1.156       .  T
C742        N744   1.157       .  T
C745        C746   1.402       .  A
C745        C750   1.414       .  A
C746        C747   1.406       .  A
C746        H751   1.083       .  S
C747        C748   1.412       .  A
C747        C754   1.436       .  S
C748        C749   1.402       .  A
C749        C750   1.402       .  A
C749        H752   1.082       .  S
C750        C753   1.444       .  S
C753        N755   1.157       .  T
C754        N756   1.154       .  T
C757        C758   1.405       .  A
C757        C762   1.417       .  A
C758        C759   1.401       .  A
C758        H763   1.085       .  S
C759        C760   1.414       .  A
C759        C766   1.440       .  S
C760        C761   1.405       .  A
C761        C762   1.403       .  A
C761        H764   1.085       .  S
C762        C765   1.443       .  S
C765        N767   1.157       .  T
C766        N768   1.157   1_565  T
C769        C770   1.416       .  A
C769        C774   1.414       .  A
C770        C771   1.406       .  A
C770        H775   1.081       .  S
C771        C772   1.405       .  A
C771        C778   1.442       .  S
C772        C773   1.397       .  A
C773        C774   1.398       .  A
C773        H776   1.086       .  S
C774        C777   1.436   1_565  S
C777        N779   1.158       .  T
C778        N780   1.157       .  T
C781        C782   1.406       .  A
C781        C786   1.407       .  A
C782        C783   1.402       .  A
C782        H787   1.085       .  S
C783        C784   1.409       .  A
C783        C790   1.442       .  S
C784        C785   1.404       .  A
C785        C786   1.399       .  A
C785        H788   1.078       .  S
C786        C789   1.444       .  S
C789        N791   1.157       .  T
C790        N792   1.157       .  T
C793        C794   1.410       .  A
C793        C798   1.415       .  A
C794        C795   1.405       .  A
C794        H799   1.084       .  S
C795        C796   1.407       .  A
C795        C802   1.439       .  S
C796        C797   1.402       .  A
C797        C798   1.396       .  A
C797        H800   1.083       .  S
C798        C801   1.445       .  S
C801        N803   1.157       .  T
C802        N804   1.156       .  T
C805        C806   1.403       .  A
C805        C810   1.408       .  A
C806        C807   1.393       .  A
C806        H811   1.084       .  S
C807        C808   1.415       .  A
C807        C814   1.445       .  S
C808        C809   1.410       .  A
C809        C810   1.407       .  A
C809        H812   1.084       .  S
C810        C813   1.442       .  S
C813        N815   1.157   1_565  T
C814        N816   1.157       .  T
C817        C818   1.409       .  A
C817        C822   1.416       .  A
C818        C819   1.404       .  A
C818        H823   1.084       .  S
C819        C820   1.410       .  A
C819        C826   1.441       .  S
C820        C821   1.407       .  A
C821        C822   1.400       .  A
C821        H824   1.085       .  S
C822        C825   1.444       .  S
C825        N827   1.157       .  T
C826        N828   1.157       .  T
C829        C830   1.395       .  A
C829        C834   1.414       .  A
C830        C831   1.399       .  A
C830        H835   1.085       .  S
C831        C832   1.421       .  A
C831        C838   1.443       .  S
C832        C833   1.403       .  A
C833        C834   1.405       .  A
C833        H836   1.084       .  S
C834        C837   1.444       .  S
C837        N839   1.157       .  T
C838        N840   1.157       .  T
C841        C842   1.388       .  A
C841        C846   1.410       .  A
C842        C843   1.394       .  A
C842        H847   1.086       .  S
C843        C844   1.424       .  A
C843        C850   1.436       .  S
C844        C845   1.407       .  A
C845        C846   1.404       .  A
C845        H848   1.083       .  S
C846        C849   1.443       .  S
C849        N851   1.157       .  T
C850        N852   1.155       .  T
C853        C854   1.398       .  A
C853        C858   1.407       .  A
C854        C855   1.394       .  A
C854        H859   1.080       .  S
C855        C856   1.414       .  A
C855        C862   1.445       .  S
C856        C857   1.407       .  A
C857        C858   1.407       .  A
C857        H860   1.084       .  S
C858        C861   1.436       .  S
C861        N863   1.154       .  T
C862        N864   1.157       .  T
C865        C866   1.405       .  A
C865        C870   1.413       .  A
C866        C867   1.401       .  A
C866        H871   1.085       .  S
C867        C868   1.411       .  A
C867        C874   1.441       .  S
C868        C869   1.408       .  A
C869        C870   1.407       .  A
C869        H872   1.084       .  S
C870        C873   1.443       .  S
C873        N875   1.157       .  T
C874        N876   1.157       .  T
C877        C878   1.400       .  A
C877        C882   1.414       .  A
C878        C879   1.404       .  A
C878        H883   1.085       .  S
C879        C880   1.415       .  A
C879        C886   1.433       .  S
C880        C881   1.408       .  A
C881        C882   1.405       .  A
C881        H884   1.084       .  S
C882        C885   1.443       .  S
C885        N887   1.157       .  T
C886        N888   1.155   1_556  T
C889        C890   1.405       .  A
C889        C894   1.418       .  A
C890        C891   1.401       .  A
C890        H895   1.084       .  S
C891        C892   1.406       .  A
C891        C898   1.437       .  S
C892        C893   1.402       .  A
C893        C894   1.401       .  A
C893        H896   1.084       .  S
C894        C897   1.444       .  S
C897        N899   1.157       .  T
C898        N900   1.155   1_556  T
C901        C902   1.404       .  A
C901        C906   1.421       .  A
C902        C903   1.396       .  A
C902        H907   1.085       .  S
C903        C904   1.411       .  A
C903        C910   1.444   1_556  S
C904        C905   1.402       .  A
C905        C906   1.408       .  A
C905        H908   1.084       .  S
C906        C909   1.442       .  S
C909        N911   1.157       .  T
C910        N912   1.157       .  T
