geometry optimzed in LAMMPS
_audit_creation_date              2020-12-01 
_audit_creation_method            'lammps2cif' 
_symmetry_space_group_name_H-M    'P1' 
_symmetry_Int_Tables_number       1 
_symmetry_cell_setting            triclinic 
loop_ 
_symmetry_equiv_pos_as_xyz 
  x,y,z 
_cell_length_a                    30.63815762 
_cell_length_b                    30.89802349440594 
_cell_length_c                    32.71706122223137 
_cell_angle_alpha                 89.55400480771466 
_cell_angle_beta                  90.01475511120853 
_cell_angle_gamma                 119.65229161785967 
loop_ 
_atom_site_label 
_atom_site_type_symbol 
_atom_site_fract_x 
_atom_site_fract_y 
_atom_site_fract_z 
_atom_site_charge 
C1          C  0.01030676  0.95940537  0.24102475     0.81300
N2          N  0.03705627  0.01001801  0.24490517    -0.77000
C3          C  0.01344400  0.03762150  0.24722267     0.83700
N4          N  0.96202253  0.01375674  0.24694778    -0.77000
C5          C  0.93425700  0.96308968  0.24290228     0.83800
N6          N  0.95886024  0.93631925  0.23944967    -0.78700
C7          C  0.28457560  0.66890342  0.26065141     0.81300
N8          N  0.26319604  0.61835404  0.26300361    -0.77000
C9          C  0.29203238  0.59594098  0.26298623     0.83700
N10         N  0.34303728  0.62512323  0.26044851    -0.77000
C11         C  0.36510361  0.67574571  0.25804599     0.83800
N12         N  0.33561556  0.69740993  0.25798333    -0.78700
C13         C  0.77801886  0.64854899  0.00577446     0.81300
N14         N  0.76727264  0.67484390  0.03326239    -0.77000
C15         C  0.74883252  0.65491484  0.07058928     0.83700
N16         N  0.74195584  0.60988710  0.08062905    -0.77000
C17         C  0.75315816  0.58364744  0.05434521     0.83800
N18         N  0.77211878  0.60297374  0.01662477    -0.78700
Zn19       Zn  0.04125603  0.83731889  0.21062174     1.49700
Zn20       Zn  0.12454574  0.91422093  0.27059563     1.49400
Zn21       Zn  0.08880161  0.79721530  0.28129352     1.49100
Zn22       Zn  0.15186041  0.84909076  0.20916508     1.49500
O23         O  0.10105503  0.85006864  0.24303750    -1.83100
O24         O  0.02478046  0.89510076  0.21372575    -0.73700
O25         O  0.14378916  0.90868856  0.33113010    -0.73500
O26         O  0.01520764  0.76292657  0.29158720    -0.73100
O27         O  0.07235478  0.93911714  0.26581608    -0.73700
O28         O  0.98101352  0.78474806  0.24050130    -0.73300
O29         O  0.11906915  0.82787072  0.33458560    -0.73900
O30         O  0.18275316  0.80812834  0.22952642    -0.73300
O31         O  0.18413145  0.96457890  0.23709721    -0.74100
O32         O  0.12085338  0.75306079  0.26835414    -0.73500
O33         O  0.20373768  0.91796392  0.19758744    -0.73900
O34         O  0.12306927  0.82299124  0.15481684    -0.73800
O35         O  0.04763578  0.81715282  0.15123093    -0.73600
C36         C  0.03721271  0.92970355  0.24005930     0.78200
C37         C  0.13852033  0.87045738  0.35115219     0.78700
C38         C  0.97804058  0.76374419  0.27479076     0.77600
C39         C  0.16292863  0.76772715  0.25018412     0.78000
C40         C  0.21000728  0.95993188  0.20863214     0.79100
C41         C  0.08381041  0.81364771  0.13491485     0.78200
C42         C  0.35458974  0.14420649  0.02558324     0.81300
N43         N  0.32299267  0.10817881  0.05220346    -0.77000
C44         C  0.33405920  0.11133475  0.09254355     0.83700
N45         N  0.37617886  0.15056775  0.10651625    -0.77000
C46         C  0.40811180  0.18693863  0.08104654     0.83800
N47         N  0.39785582  0.18399303  0.04008291    -0.78700
C48         C  0.88846672  0.66040430  0.46902551     0.81300
N49         N  0.88022910  0.68693280  0.43960037    -0.77000
C50         C  0.86971290  0.67042706  0.40065544     0.83700
N51         N  0.86960435  0.62810383  0.39108869    -0.77000
C52         C  0.87885381  0.60152010  0.41911647     0.83800
N53         N  0.88769049  0.61714909  0.45870418    -0.78700
Zn54       Zn  0.64315545  0.28458264  0.24919790     1.49700
Zn55       Zn  0.67723546  0.36255760  0.31945680     1.49400
Zn56       Zn  0.74342379  0.39077191  0.24074489     1.49100
Zn57       Zn  0.63367057  0.38499344  0.24376115     1.49500
O58         O  0.67413778  0.35543247  0.26183121    -1.83100
O59         O  0.64262561  0.24391142  0.30119154    -0.73700
O60         O  0.74121432  0.41731288  0.33663266    -0.73500
O61         O  0.75905563  0.34536706  0.20556668    -0.73100
O62         O  0.67391356  0.30489660  0.34665068    -0.73700
O63         O  0.68483554  0.27635538  0.20532029    -0.73300
O64         O  0.79536053  0.42918049  0.28718326    -0.73900
O65         O  0.67391414  0.44016549  0.20267138    -0.73300
O66         O  0.62489537  0.37362561  0.34333529    -0.74100
O67         O  0.74473007  0.43711005  0.19690714    -0.73500
O68         O  0.60078482  0.40335007  0.29196993    -0.73900
O69         O  0.57913665  0.33484248  0.20782589    -0.73800
O70         O  0.57746959  0.26258827  0.21783938    -0.73600
C71         C  0.65984196  0.26039589  0.33696218     0.78200
C72         C  0.78597236  0.43730912  0.32367188     0.78700
C73         C  0.72911409  0.30240971  0.19102086     0.77600
C74         C  0.71508980  0.45199243  0.18411406     0.78000
C75         C  0.59925716  0.39262698  0.33007701     0.79100
C76         C  0.56136791  0.28890437  0.19977511     0.78200
Zn77       Zn  0.77701814  0.90570989  0.28791049     1.49700
Zn78       Zn  0.68206965  0.88764033  0.22833229     1.49400
Zn79       Zn  0.77547548  0.87556002  0.19981185     1.49100
Zn80       Zn  0.68562532  0.79711898  0.26415300     1.49500
O81         O  0.73001922  0.86621754  0.24505377    -1.83100
O82         O  0.76385493  0.96113416  0.29748880    -0.73700
O83         O  0.68427300  0.89619764  0.16750807    -0.73500
O84         O  0.85293427  0.91765995  0.21045838    -0.73100
O85         O  0.69838862  0.94913746  0.25909564    -0.73700
O86         O  0.85392092  0.93488567  0.27609827    -0.73300
O87         O  0.75244510  0.89431557  0.14728149    -0.73900
O88         O  0.70454815  0.75256656  0.23289045    -0.73300
O89         O  0.60767925  0.83811927  0.24003082    -0.74100
O90         O  0.76130132  0.80792910  0.18904679    -0.73500
O91         O  0.61007028  0.76934975  0.25422138    -0.73900
O92         O  0.68870912  0.79560762  0.32626863    -0.73800
O93         O  0.75420902  0.86872190  0.34218817    -0.73600
C94         C  0.73039785  0.97202065  0.28707382     0.78200
C95         C  0.71296298  0.89684956  0.13910792     0.78700
C96         C  0.87755786  0.93722831  0.24314890     0.77600
C97         C  0.73386250  0.76368172  0.20205434     0.78000
C98         C  0.58509287  0.79156914  0.24763759     0.79100
C99         C  0.71607916  0.82751912  0.35292060     0.78200
C100        C  0.73467836  0.10497310  0.48986418     0.81300
N101        N  0.71707558  0.13751450  0.48279584    -0.77000
C102        C  0.69645617  0.13740592  0.44559349     0.83700
N103        N  0.69568557  0.10704534  0.41609323    -0.77000
C104        C  0.71448723  0.07656665  0.42235757     0.83800
N105        N  0.73432968  0.07545268  0.45910048    -0.78700
C106        C  0.37912914  0.26946236  0.48283450     0.81300
N107        N  0.42246328  0.31185431  0.47151688    -0.77000
C108        C  0.43444689  0.32130672  0.43079641     0.83700
N109        N  0.40378686  0.28828209  0.40291854    -0.77000
C110        C  0.36149737  0.24636082  0.41343761     0.83800
N111        N  0.34918859  0.23767631  0.45356506    -0.78700
Zn112      Zn  0.10613573  0.18570414  0.29970885     1.49700
Zn113      Zn  0.19404618  0.28129732  0.25043111     1.49400
Zn114      Zn  0.09448286  0.19662515  0.20939233     1.49100
Zn115      Zn  0.09608701  0.27881555  0.27382982     1.49500
O116        O  0.12271071  0.23598214  0.25791183    -1.83100
O117        O  0.16750184  0.18114389  0.30732735    -0.73700
O118        O  0.20890043  0.29046548  0.18982583    -0.73500
O119        O  0.06421643  0.11965112  0.21784281    -0.73100
O120        O  0.23035935  0.25122684  0.28135939    -0.73700
O121        O  0.05033693  0.11427769  0.28484120    -0.73300
O122        O  0.14150025  0.22964509  0.16011501    -0.73900
O123        O  0.03286644  0.25817011  0.24192010    -0.73300
O124        O  0.21701307  0.35348157  0.26760051    -0.74100
O125        O  0.03714006  0.20610940  0.19693580    -0.73500
O126        O  0.14442157  0.35230192  0.26168774    -0.73900
O127        O  0.08967742  0.27747300  0.33555366    -0.73800
O128        O  0.09878188  0.21283728  0.35425577    -0.73600
C129        C  0.21413753  0.21067601  0.30196290     0.78200
C130        C  0.18439273  0.26928084  0.15765502     0.78700
C131        C  0.04388641  0.09331201  0.25006316     0.77600
C132        C  0.01681101  0.23038097  0.21050389     0.78000
C133        C  0.19211773  0.37654678  0.26498542     0.79100
C134        C  0.09550386  0.25131827  0.36303576     0.78200
C135        C  0.85350718  0.21101242  0.01973870     0.81300
N136        N  0.88666337  0.21267563  0.04821857    -0.77000
C137        C  0.88398578  0.22564721  0.08714608     0.83700
N138        N  0.84841265  0.23649791  0.09802024    -0.77000
C139        C  0.81455290  0.23458729  0.07093953     0.83800
N140        N  0.81650889  0.22162848  0.03118055    -0.78700
C141        C  0.98395988  0.02839442  0.74618024     0.81300
N142        N  0.96218052  0.97781376  0.74317779    -0.77000
C143        C  0.99062223  0.95505166  0.74046842     0.83700
N144        N  0.04203193  0.98395986  0.74043508    -0.77000
C145        C  0.06487726  0.03481830  0.74391960     0.83800
N146        N  0.03534060  0.05652250  0.74706099    -0.78700
Zn147      Zn  0.31356106  0.11946174  0.76563990     1.49700
Zn148      Zn  0.21938738  0.13028894  0.79290698     1.49400
Zn149      Zn  0.31349144  0.21510439  0.73713518     1.49100
Zn150      Zn  0.22530244  0.11407716  0.70241888     1.49500
O151        O  0.26831353  0.14468364  0.74935317    -1.83100
O152        O  0.31291242  0.11356464  0.82816047    -0.73700
O153        O  0.22217081  0.19402731  0.80338587    -0.73500
O154        O  0.38801922  0.23976040  0.75059728    -0.73100
O155        O  0.24639196  0.11980496  0.84704439    -0.73700
O156        O  0.38834219  0.16833632  0.75181563    -0.73300
O157        O  0.28825431  0.25292783  0.76984417    -0.73900
O158        O  0.25494987  0.15755922  0.65084160    -0.73300
O159        O  0.14424529  0.07825982  0.77968006    -0.74100
O160        O  0.31611646  0.22831657  0.67610610    -0.73500
O161        O  0.14711634  0.08166175  0.71191769    -0.73900
O162        O  0.23527514  0.05774187  0.69246734    -0.73800
O163        O  0.29034725  0.05439925  0.73536633    -0.73600
C164        C  0.28555887  0.11706793  0.85594618     0.78200
C165        C  0.25224757  0.23965647  0.79539669     0.78700
C166        C  0.41225033  0.21596363  0.75086114     0.77600
C167        C  0.29274525  0.20118481  0.64570298     0.78000
C168        C  0.12157714  0.06641574  0.74519417     0.79100
C169        C  0.25944757  0.03697688  0.70559875     0.78200
C170        C  0.26288152  0.37331775  0.00162949     0.81300
N171        N  0.25727954  0.34291196  0.96972011    -0.77000
C172        C  0.27362709  0.36237057  0.93178477     0.83700
N173        N  0.29511973  0.41181193  0.92610142    -0.77000
C174        C  0.30165715  0.44284737  0.95698054     0.83800
N175        N  0.28467642  0.42377456  0.99524824    -0.78700
C176        C  0.14625013  0.32584783  0.52867094     0.81300
N177        N  0.13032059  0.28900461  0.55741149    -0.77000
C178        C  0.14107872  0.29972228  0.59759493     0.83700
N179        N  0.16723637  0.34788469  0.60850389    -0.77000
C180        C  0.18322925  0.38515996  0.58082814     0.83800
N181        N  0.17252826  0.37456806  0.54043760    -0.78700
Zn182      Zn  0.88493042  0.17129698  0.71204813     1.49700
Zn183      Zn  0.86105453  0.05923289  0.71577732     1.49400
Zn184      Zn  0.93283074  0.13372348  0.78220518     1.49100
Zn185      Zn  0.81759434  0.10927082  0.77705559     1.49500
O186        O  0.87492365  0.11789491  0.74736860    -1.83100
O187        O  0.84954783  0.14251049  0.65981730    -0.73700
O188        O  0.92173676  0.04613164  0.71778242    -0.73500
O189        O  0.99321917  0.18864329  0.75256779    -0.73100
O190        O  0.83314671  0.06376871  0.65842095    -0.73700
O191        O  0.95744492  0.20481966  0.69929571    -0.73300
O192        O  0.95414868  0.07913749  0.77841148    -0.73900
O193        O  0.83910642  0.13378736  0.83354722    -0.73300
O194        O  0.80883961  0.00184898  0.74826025    -0.74100
O195        O  0.91813925  0.15083975  0.84166813    -0.73500
O196        O  0.77157263  0.03674595  0.78324671    -0.73900
O197        O  0.78522198  0.14925495  0.75625508    -0.73800
O198        O  0.85446845  0.21369193  0.73183298    -0.73600
C199        C  0.83121575  0.10070599  0.64205107     0.78200
C200        C  0.95167717  0.05251906  0.74756049     0.78700
C201        C  0.99521869  0.20575459  0.71654044     0.77600
C202        C  0.87769487  0.14833543  0.85594083     0.78000
C203        C  0.77706906  0.99964842  0.77438950     0.79100
C204        C  0.80895747  0.19458706  0.74417184     0.78200
C205        C  0.10827642  0.76090639  0.96992827     0.81300
N206        N  0.11270789  0.71964934  0.96261622    -0.77000
C207        C  0.12157143  0.71032274  0.92366051     0.83700
N208        N  0.12760679  0.74262535  0.89342922    -0.77000
C209        C  0.12502854  0.78418640  0.90018617     0.83800
N210        N  0.11430775  0.79263394  0.93852075    -0.78700
Zn211      Zn  0.32059190  0.65665964  0.69922687     1.49700
Zn212      Zn  0.26304335  0.59470433  0.77368257     1.49400
Zn213      Zn  0.38367722  0.66535953  0.77468325     1.49100
Zn214      Zn  0.31268766  0.71502160  0.77196616     1.49500
O215        O  0.31994540  0.65810442  0.75687330    -1.83100
O216        O  0.29153692  0.58988983  0.67741065    -0.73700
O217        O  0.28869590  0.56899419  0.81862573    -0.73500
O218        O  0.43393428  0.68448212  0.72560044    -0.73100
O219        O  0.23593971  0.54438903  0.72539304    -0.73700
O220        O  0.38810449  0.69325407  0.67691291    -0.73300
O221        O  0.37199939  0.60981082  0.81599599    -0.73900
O222        O  0.37170365  0.76384424  0.80816183    -0.73300
O223        O  0.21128454  0.60569861  0.80492265    -0.74100
O224        O  0.41359706  0.72230466  0.81236037    -0.73500
O225        O  0.25457181  0.68838806  0.81090145    -0.73900
O226        O  0.29722367  0.74498096  0.72019703    -0.73800
O227        O  0.28417368  0.68654383  0.67472444    -0.73600
C228        C  0.25531745  0.54904018  0.68977644     0.78200
C229        C  0.33084883  0.57847269  0.83361075     0.78700
C230        C  0.42929906  0.69815835  0.68943800     0.77600
C231        C  0.40619515  0.75724449  0.82395546     0.78000
C232        C  0.21815119  0.64602975  0.82132719     0.79100
C233        C  0.28343075  0.72557059  0.68469478     0.78200
Zn234      Zn  0.85341853  0.70590146  0.70869078     1.49700
Zn235      Zn  0.87917036  0.79673126  0.76952235     1.49400
Zn236      Zn  0.91508251  0.71411897  0.77838121     1.49100
Zn237      Zn  0.96291548  0.80330282  0.70912409     1.49500
O238        O  0.90371721  0.75664753  0.74172940    -1.83100
O239        O  0.80456261  0.72638129  0.69596694    -0.73700
O240        O  0.85853833  0.77029782  0.82861453    -0.73500
O241        O  0.88222375  0.63845399  0.76442457    -0.73100
O242        O  0.81851088  0.78784680  0.73821333    -0.73700
O243        O  0.81896449  0.63472010  0.72924497    -0.73300
O244        O  0.88313288  0.71346610  0.83114266    -0.73900
O245        O  0.02288516  0.80919846  0.73864995    -0.73300
O246        O  0.93023519  0.87308167  0.76519908    -0.74100
O247        O  0.98872266  0.75103119  0.78809774    -0.73500
O248        O  0.97851417  0.87733030  0.71275910    -0.73900
O249        O  0.95572130  0.77598817  0.64983918    -0.73800
O250        O  0.88235474  0.70544508  0.65556051    -0.73600
C251        C  0.79487878  0.75944563  0.70847633     0.78200
C252        C  0.86255687  0.73602767  0.84762093     0.78700
C253        C  0.83911978  0.61282334  0.74779726     0.77600
C254        C  0.02600828  0.78881412  0.77163694     0.78000
C255        C  0.96526928  0.89895612  0.73935359     0.79100
C256        C  0.92056062  0.73537720  0.63481827     0.78200
C257        C  0.65027216  0.79447019  0.52342288     0.81300
N258        N  0.60461401  0.78565827  0.53798995    -0.77000
C259        C  0.59546165  0.77963277  0.57913019     0.83700
N260        N  0.63074442  0.78129213  0.60450415    -0.77000
C261        C  0.67511708  0.78913578  0.59030842     0.83800
N262        N  0.68510259  0.79536242  0.54971460    -0.78700
C263        C  0.63541695  0.87795785  0.97323322     0.81300
N264        N  0.66848309  0.88919366  0.94192651    -0.77000
C265        C  0.65408358  0.88732968  0.90254928     0.83700
N266        N  0.60603357  0.87479485  0.89491652    -0.77000
C267        C  0.57197126  0.86267667  0.92523314     0.83800
N268        N  0.58643482  0.86382809  0.96486889    -0.78700
C269        C  0.21049616  0.86587158  0.51553141     0.81300
N270        N  0.21962885  0.90268546  0.54265391    -0.77000
C271        C  0.23660359  0.90119552  0.58068041     0.83700
N272        N  0.24355672  0.86327349  0.59170250    -0.77000
C273        C  0.23428977  0.82633094  0.56580027     0.83800
N274        N  0.21726790  0.82686487  0.52732126    -0.78700
C275        C  0.70887696  0.31497233  0.74729893     0.81300
N276        N  0.65785460  0.29349572  0.74814646    -0.77000
C277        C  0.63488529  0.32175405  0.74887293     0.83700
N278        N  0.66423230  0.37255624  0.74953853    -0.77000
C279        C  0.71551024  0.39467685  0.74911379     0.83800
N280        N  0.73742516  0.36558840  0.74756209    -0.78700
C281        C  0.81121461  0.55673401  0.74903119    -0.04300
C282        C  0.79101715  0.53027510  0.78607000    -0.01400
C283        C  0.75912936  0.47764288  0.78608083     0.03600
C284        C  0.74791615  0.45053164  0.74920426    -0.04300
C285        C  0.76904100  0.47690774  0.71235890    -0.01400
C286        C  0.79982018  0.52953816  0.71218195     0.03600
C287        C  0.80152673  0.55750583  0.82404120     0.38200
C288        C  0.75813706  0.44991348  0.67426524     0.38200
C289        C  0.81985465  0.55589942  0.67381415     0.36600
C290        C  0.73724401  0.45136780  0.82407560     0.36600
N291        N  0.83577329  0.57704342  0.64324449    -0.38200
N292        N  0.71954109  0.43041464  0.85438316    -0.38200
N293        N  0.74939722  0.42853460  0.64376629    -0.37600
N294        N  0.80999663  0.57939251  0.85427796    -0.37600
C295        C  0.75856549  0.76707348  0.68419461    -0.04300
C296        C  0.71955290  0.72585277  0.66369537    -0.01400
C297        C  0.69477945  0.73369939  0.63090683     0.03600
C298        C  0.70756936  0.78255142  0.61929304    -0.04300
C299        C  0.74326261  0.82351575  0.64163936    -0.01400
C300        C  0.76883919  0.81595506  0.67418460     0.03600
C301        C  0.70452377  0.67517131  0.67642241     0.38200
C302        C  0.75326750  0.87336768  0.63121856     0.38200
C303        C  0.80629862  0.85872759  0.69641389     0.36600
C304        C  0.65546793  0.69137104  0.60934109     0.36600
N305        N  0.83583856  0.89292440  0.71426759    -0.38200
N306        N  0.62408668  0.65771230  0.59220991    -0.38200
N307        N  0.76113119  0.91306740  0.62288963    -0.37600
N308        N  0.69260590  0.63480709  0.68647491    -0.37600
C309        C  0.47140141  0.72017601  0.65973016    -0.04300
C310        C  0.50930623  0.77036135  0.66332094    -0.01400
C311        C  0.54603449  0.79289081  0.63235984     0.03600
C312        C  0.54644970  0.76491817  0.59847887    -0.04300
C313        C  0.50661671  0.71588864  0.59351359    -0.01400
C314        C  0.46848956  0.69406359  0.62351603     0.03600
C315        C  0.51010026  0.79901202  0.69852733     0.38200
C316        C  0.50674641  0.68669648  0.55906056     0.38200
C317        C  0.42643962  0.64439320  0.61728555     0.36600
C318        C  0.58473145  0.84470864  0.63567932     0.36600
N319        N  0.39262855  0.60502341  0.61200703    -0.38200
N320        N  0.61556932  0.88610344  0.63774395    -0.38200
N321        N  0.50698377  0.66332860  0.53167929    -0.37600
N322        N  0.51073189  0.82190274  0.72658327    -0.37600
C323        C  0.43807569  0.78830731  0.85819865    -0.04300
C324        C  0.46728891  0.84047857  0.85442917    -0.01400
C325        C  0.50753872  0.86720329  0.88165600     0.03600
C326        C  0.51893094  0.84180094  0.91241264    -0.04300
C327        C  0.48519853  0.79098674  0.91983295    -0.01400
C328        C  0.44497200  0.76427091  0.89278065     0.03600
C329        C  0.45927323  0.86595659  0.82035610     0.38200
C330        C  0.49516604  0.76478365  0.95230419     0.38200
C331        C  0.41270011  0.71113288  0.89928108     0.36600
C332        C  0.54010332  0.92039683  0.87595693     0.36600
N333        N  0.38744488  0.66878694  0.90485568    -0.38200
N334        N  0.56627036  0.96280418  0.87142499    -0.38200
N335        N  0.50317978  0.74378326  0.97804830    -0.37600
N336        N  0.45295822  0.88629508  0.79309518    -0.37600
C337        C  0.26931161  0.74924314  0.65187734    -0.04300
C338        C  0.30585450  0.77913727  0.62246130    -0.01400
C339        C  0.29216939  0.79760985  0.58816387     0.03600
C340        C  0.24200026  0.78658519  0.58312819    -0.04300
C341        C  0.20482932  0.75272325  0.61039690    -0.01400
C342        C  0.21839001  0.73411543  0.64475603     0.03600
C343        C  0.35781802  0.79163084  0.62794870     0.38200
C344        C  0.15308462  0.74036220  0.60464770     0.38200
C345        C  0.18020648  0.70026959  0.67322174     0.36600
C346        C  0.33034038  0.83134363  0.55963202     0.36600
N347        N  0.14982012  0.67327492  0.69598915    -0.38200
N348        N  0.36074916  0.85831764  0.53687849    -0.38200
N349        N  0.11189925  0.73080134  0.59980128    -0.37600
N350        N  0.39918334  0.80145781  0.63243207    -0.37600
C351        C  0.13339163  0.67098935  0.91247494    -0.04300
C352        C  0.10802849  0.64092895  0.87842426    -0.01400
C353        C  0.13416152  0.62765494  0.85007485     0.03600
C354        C  0.18576916  0.64507225  0.85559798    -0.04300
C355        C  0.20854926  0.66805700  0.89298385    -0.01400
C356        C  0.18190211  0.67982035  0.92181165     0.03600
C357        C  0.05682539  0.62906108  0.87004658     0.38200
C358        C  0.26063446  0.68276638  0.90072424     0.38200
C359        C  0.20682156  0.70731298  0.95834259     0.36600
C360        C  0.10938928  0.60047234  0.81346943     0.36600
N361        N  0.22660104  0.72936042  0.98744879    -0.38200
N362        N  0.08970985  0.57864904  0.78425290    -0.38200
N363        N  0.30223583  0.69492530  0.90713225    -0.37600
N364        N  0.01606997  0.61984393  0.86320749    -0.37600
C365        C  0.12592932  0.81432054  0.86412445    -0.04300
C366        C  0.09917884  0.84055593  0.86540364    -0.01400
C367        C  0.07104997  0.83923841  0.83106358     0.03600
C368        C  0.07191507  0.81353360  0.79585828    -0.04300
C369        C  0.10978775  0.80115432  0.79102039    -0.01400
C370        C  0.13855216  0.80332391  0.82522872     0.03600
C371        C  0.09721470  0.86515870  0.90235360     0.38200
C372        C  0.11589999  0.78239221  0.75223975     0.38200
C373        C  0.17750824  0.78990584  0.82114929     0.36600
C374        C  0.03715991  0.85932366  0.83335225     0.36600
N375        N  0.20847000  0.77904544  0.81782796    -0.38200
N376        N  0.01012650  0.87531243  0.83529076    -0.38200
N377        N  0.12080936  0.76767102  0.72114693    -0.37600
N378        N  0.09585894  0.88506658  0.93175317    -0.37600
C379        C  0.78299055  0.22520118  0.74475196    -0.04300
C380        C  0.78545293  0.25472069  0.71052438    -0.01400
C381        C  0.76120724  0.28375416  0.71133192     0.03600
C382        C  0.73343755  0.28323629  0.74605777    -0.04300
C383        C  0.72927795  0.25228266  0.77961809    -0.01400
C384        C  0.75436912  0.22405606  0.77925552     0.03600
C385        C  0.81076836  0.25327626  0.67351860     0.38200
C386        C  0.69944107  0.24980370  0.81489131     0.38200
C387        C  0.75194315  0.19504006  0.81515533     0.36600
C388        C  0.76285920  0.31239910  0.67548894     0.36600
N389        N  0.75016246  0.17199008  0.84380447    -0.38200
N390        N  0.76394104  0.33482406  0.64664834    -0.38200
N391        N  0.67535086  0.24755271  0.84292491    -0.37600
N392        N  0.83060739  0.25174003  0.64390759    -0.37600
C393        C  0.69059567  0.90277932  0.86785641    -0.04300
C394        C  0.74268338  0.93540582  0.87424848    -0.01400
C395        C  0.77352720  0.96180620  0.84094870     0.03600
C396        C  0.75250391  0.95663428  0.80183010    -0.04300
C397        C  0.70395778  0.91801623  0.79398498    -0.01400
C398        C  0.67289506  0.89024613  0.82690793     0.03600
C399        C  0.76461222  0.94568053  0.91480140     0.38200
C400        C  0.68584621  0.90835790  0.75229372     0.38200
C401        C  0.62245068  0.85038203  0.81821846     0.36600
C402        C  0.82623008  0.99788618  0.84735315     0.36600
N403        N  0.58215256  0.81889826  0.81109033    -0.38200
N404        N  0.86818116  0.02657546  0.85234946    -0.38200
N405        N  0.67175354  0.90030598  0.71892212    -0.37600
N406        N  0.78257389  0.95443141  0.94696599    -0.37600
C407        C  0.03969409  0.21997015  0.69045512    -0.04300
C408        C  0.08854210  0.25560825  0.70210646    -0.01400
C409        C  0.12683053  0.27572081  0.67218342     0.03600
C410        C  0.11496704  0.26179730  0.63056757    -0.04300
C411        C  0.07012949  0.21734978  0.62201296    -0.01400
C412        C  0.03235479  0.19659183  0.65203482     0.03600
C413        C  0.09892552  0.27276494  0.74393811     0.38200
C414        C  0.06185825  0.19363366  0.58246931     0.38200
C415        C  0.98579497  0.15118249  0.64334634     0.36600
C416        C  0.17779237  0.31145790  0.68397130     0.36600
N417        N  0.94895237  0.11480355  0.63632600    -0.38200
N418        N  0.21847552  0.33980989  0.69340355    -0.38200
N419        N  0.05517314  0.17447339  0.55102777    -0.37600
N420        N  0.10746385  0.28620611  0.77740859    -0.37600
C421        C  0.20714328  0.43583020  0.59778729    -0.04300
C422        C  0.25413171  0.45379395  0.61692590    -0.01400
C423        C  0.26848938  0.48880129  0.64862271     0.03600
C424        C  0.23656424  0.50737145  0.66056008    -0.04300
C425        C  0.19171745  0.49294932  0.63877461    -0.01400
C426        C  0.17662690  0.45661808  0.60791179     0.03600
C427        C  0.28702339  0.43490709  0.60457512     0.38200
C428        C  0.16169510  0.51620855  0.64760293     0.38200
C429        C  0.12861847  0.43884904  0.58783590     0.36600
C430        C  0.31564656  0.50479605  0.66973107     0.36600
N431        N  0.09031228  0.42460778  0.57177904    -0.38200
N432        N  0.35317863  0.51745838  0.68664649    -0.38200
N433        N  0.13809785  0.53520025  0.65447378    -0.37600
N434        N  0.31338616  0.42016658  0.59432099    -0.37600
C435        C  0.33054762  0.55423579  0.87401071    -0.04300
C436        C  0.28944920  0.53926836  0.90180416    -0.01400
C437        C  0.28455975  0.50972325  0.93655244     0.03600
C438        C  0.32054409  0.49529108  0.94441997    -0.04300
C439        C  0.36614778  0.51883391  0.92225004    -0.01400
C440        C  0.37090334  0.54711817  0.88653876     0.03600
C441        C  0.25129530  0.55330568  0.89506502     0.38200
C442        C  0.40670853  0.51041039  0.93489102     0.38200
C443        C  0.41628214  0.56636200  0.86211991     0.36600
C444        C  0.24008691  0.49015942  0.96224372     0.36600
N445        N  0.45268752  0.58173524  0.84282457    -0.38200
N446        N  0.20466783  0.47459357  0.98278088    -0.38200
N447        N  0.43910591  0.50384129  0.94525250    -0.37600
N448        N  0.22028247  0.56382107  0.89021710    -0.37600
C449        C  0.57784481  0.29656675  0.74810451    -0.04300
C450        C  0.54947337  0.25486857  0.72261527    -0.01400
C451        C  0.49604876  0.22895836  0.72353835     0.03600
C452        C  0.46931471  0.24422452  0.74962475    -0.04300
C453        C  0.49756010  0.28717914  0.77382310    -0.01400
C454        C  0.55109692  0.31303742  0.77305502     0.03600
C455        C  0.57513904  0.23985758  0.69353330     0.38200
C456        C  0.47160554  0.30421725  0.80069849     0.38200
C457        C  0.57844418  0.35613204  0.79888802     0.36600
C458        C  0.46862456  0.18784176  0.69581297     0.36600
N459        N  0.60011062  0.39069129  0.81937199    -0.38200
N460        N  0.44696165  0.15533192  0.67339462    -0.38200
N461        N  0.45090680  0.31787001  0.82209825    -0.37600
N462        N  0.59561419  0.22809103  0.67017691    -0.37600
C463        C  0.25260553  0.99369512  0.68204063    -0.04300
C464        C  0.20451652  0.96164754  0.66562567    -0.01400
C465        C  0.19980375  0.93407329  0.63041069     0.03600
C466        C  0.24283690  0.93654098  0.61271425    -0.04300
C467        C  0.28997424  0.96366806  0.63206967    -0.01400
C468        C  0.29493110  0.99240024  0.66669636     0.03600
C469        C  0.15984056  0.95729752  0.68503137     0.38200
C470        C  0.33347140  0.96221884  0.61613145     0.38200
C471        C  0.34372040  0.02152173  0.68560313     0.36600
C472        C  0.15051408  0.90201013  0.61312378     0.36600
N473        N  0.38257070  0.04425042  0.70092067    -0.38200
N474        N  0.11126966  0.87641458  0.59931945    -0.38200
N475        N  0.36802729  0.96075905  0.60357608    -0.37600
N476        N  0.12424076  0.95368855  0.70056980    -0.37600
C477        C  0.24984487  0.27728740  0.82208432    -0.04300
C478        C  0.29321977  0.32437384  0.82651362    -0.01400
C479        C  0.30260446  0.34944623  0.86383163     0.03600
C480        C  0.26571241  0.33133113  0.89523591    -0.04300
C481        C  0.21913675  0.28799412  0.88838457    -0.01400
C482        C  0.21086717  0.26157958  0.85166299     0.03600
C483        C  0.32907844  0.34716195  0.79321748     0.38200
C484        C  0.17963667  0.26974314  0.91904384     0.38200
C485        C  0.16200587  0.21815587  0.84457236     0.36600
C486        C  0.35217626  0.39195605  0.87048085     0.36600
N487        N  0.12308956  0.18350133  0.83908671    -0.38200
N488        N  0.39217578  0.42528901  0.87502069    -0.38200
N489        N  0.14789604  0.25425044  0.94330639    -0.37600
N490        N  0.35755903  0.36566729  0.76670136    -0.37600
C491        C  0.85863716  0.19646264  0.97697405    -0.04300
C492        C  0.81966634  0.15309939  0.95915153    -0.01400
C493        C  0.82694198  0.13614582  0.92090834     0.03600
C494        C  0.87333866  0.16278208  0.89921828    -0.04300
C495        C  0.91264018  0.20571007  0.91758536    -0.01400
C496        C  0.90544513  0.22215303  0.95615110     0.03600
C497        C  0.77262407  0.12440995  0.98113136     0.38200
C498        C  0.96018691  0.23418186  0.89634377     0.38200
C499        C  0.94640416  0.26632560  0.97425075     0.36600
C500        C  0.78665486  0.08998815  0.90466295     0.36600
N501        N  0.97907674  0.30142584  0.98883443    -0.38200
N502        N  0.75439380  0.05323554  0.89181277    -0.38200
N503        N  0.99818046  0.25697504  0.87945067    -0.37600
N504        N  0.73517916  0.10143916  0.99873060    -0.37600
C505        C  0.10712121  0.27102140  0.40534449    -0.04300
C506        C  0.15809333  0.30087938  0.41664474    -0.01400
C507        C  0.17091232  0.32176238  0.45607346     0.03600
C508        C  0.13295142  0.31162819  0.48509770    -0.04300
C509        C  0.08194185  0.28272913  0.47347071    -0.01400
C510        C  0.06906726  0.26268926  0.43366067     0.03600
C511        C  0.19759088  0.30942937  0.38773357     0.38200
C512        C  0.04269272  0.27480862  0.50226451     0.38200
C513        C  0.01682716  0.23283702  0.42207391     0.36600
C514        C  0.22327070  0.35276125  0.46705174     0.36600
N515        N  0.97508930  0.20891949  0.41290842    -0.38200
N516        N  0.26502286  0.37782031  0.47571880    -0.38200
N517        N  0.01158185  0.26906333  0.52527829    -0.37600
N518        N  0.22897957  0.31587907  0.36472739    -0.37600
C519        C  0.20471109  0.29439641  0.11685534    -0.04300
C520        C  0.25728478  0.32184099  0.10921315    -0.01400
C521        C  0.27632229  0.34923749  0.07231254     0.03600
C522        C  0.24343190  0.35008951  0.04258405    -0.04300
C523        C  0.19124514  0.32392160  0.05028216    -0.01400
C524        C  0.17192318  0.29647244  0.08709539     0.03600
C525        C  0.29225533  0.32220865  0.13925730     0.38200
C526        C  0.15733177  0.32642008  0.02058990     0.38200
C527        C  0.11831114  0.27288422  0.09500149     0.36600
C528        C  0.33000652  0.37626914  0.06461056     0.36600
N529        N  0.07557599  0.25439466  0.10121734    -0.38200
N530        N  0.37281515  0.39794756  0.05837656    -0.38200
N531        N  0.13026027  0.32861153  0.99705809    -0.37600
N532        N  0.32018590  0.32313788  0.16351968    -0.37600
C533        C  0.91782154  0.22671027  0.11896106    -0.04300
C534        C  0.95418189  0.27293936  0.13476786    -0.01400
C535        C  0.98391125  0.27435200  0.16791783     0.03600
C536        C  0.97672702  0.22936564  0.18544515    -0.04300
C537        C  0.93789799  0.18319649  0.17133313    -0.01400
C538        C  0.90834741  0.18190595  0.13807638     0.03600
C539        C  0.96133340  0.31902287  0.11652612     0.38200
C540        C  0.92882807  0.13707409  0.19081473     0.38200
C541        C  0.86747432  0.13470140  0.12408439     0.36600
C542        C  0.02393277  0.32199236  0.18210023     0.36600
N543        N  0.83466339  0.09717773  0.11299898    -0.38200
N544        N  0.05590179  0.35993349  0.19336072    -0.38200
N545        N  0.92167215  0.10032476  0.20632264    -0.37600
N546        N  0.96682733  0.35569984  0.10206363    -0.37600
C547        C  0.36275748  0.25560377  0.52641996    -0.04300
C548        C  0.35089634  0.20766028  0.54085489    -0.01400
C549        C  0.32651542  0.18950537  0.57893449     0.03600
C550        C  0.31383546  0.21914715  0.60363066    -0.04300
C551        C  0.32678651  0.26759519  0.58973040    -0.01400
C552        C  0.35089996  0.28564281  0.55128771     0.03600
C553        C  0.36437637  0.17687904  0.51650775     0.38200
C554        C  0.31335111  0.29807991  0.61434222     0.38200
C555        C  0.36148121  0.33426312  0.53658818     0.36600
C556        C  0.31597167  0.14059464  0.59315211     0.36600
N557        N  0.36988668  0.37307353  0.52484247    -0.38200
N558        N  0.30763808  0.10158961  0.60432632    -0.38200
N559        N  0.30227081  0.32200930  0.63417878    -0.37600
N560        N  0.37510031  0.15241016  0.49701516    -0.37600
C561        C  0.32549141  0.21616301  0.38067263    -0.04300
C562        C  0.27494156  0.18202591  0.39045174    -0.01400
C563        C  0.23699634  0.17487155  0.36260625     0.03600
C564        C  0.25023723  0.20012067  0.32419166    -0.04300
C565        C  0.30048635  0.22173915  0.31078163    -0.01400
C566        C  0.33825058  0.22918955  0.33892322     0.03600
C567        C  0.26150544  0.15561312  0.42937388     0.38200
C568        C  0.31350266  0.23757371  0.26852445     0.38200
C569        C  0.38993523  0.25143807  0.32491713     0.36600
C570        C  0.18497007  0.14486273  0.37546919     0.36600
N571        N  0.43106254  0.26920464  0.31355775    -0.38200
N572        N  0.14364499  0.12098427  0.38608363    -0.38200
N573        N  0.32394899  0.25006409  0.23480885    -0.37600
N574        N  0.25063281  0.13426874  0.46026974    -0.37600
C575        C  0.75870667  0.10400426  0.52929842    -0.04300
C576        C  0.73116601  0.06781983  0.55974589    -0.01400
C577        C  0.75528755  0.06434912  0.59568164     0.03600
C578        C  0.80721167  0.09697609  0.60144763    -0.04300
C579        C  0.83481506  0.13216909  0.57039061    -0.01400
C580        C  0.81088944  0.13522049  0.53442074     0.03600
C581        C  0.67788366  0.03425934  0.55415043     0.38200
C582        C  0.88825714  0.16550064  0.57547150     0.38200
C583        C  0.84044790  0.17008799  0.50230834     0.36600
C584        C  0.72628964  0.02875909  0.62755095     0.36600
N585        N  0.86469670  0.19788263  0.47690266    -0.38200
N586        N  0.70336096  0.00055036  0.65317878    -0.38200
N587        N  0.93082391  0.19219173  0.57972286    -0.37600
N588        N  0.63534308  0.00744200  0.54972794    -0.37600
C589        C  0.70023232  0.81868135  0.39720521    -0.04300
C590        C  0.70640258  0.85906826  0.42198839    -0.01400
C591        C  0.68814086  0.85067682  0.46263890     0.03600
C592        C  0.66289132  0.80209150  0.47913532    -0.04300
C593        C  0.65590859  0.76173264  0.45475396    -0.01400
C594        C  0.67431068  0.76979620  0.41407603     0.03600
C595        C  0.73000482  0.90953170  0.40576523     0.38200
C596        C  0.63007776  0.71172547  0.47188049     0.38200
C597        C  0.66729082  0.72753905  0.39012573     0.36600
C598        C  0.69561102  0.89233431  0.48779194     0.36600
N599        N  0.66145648  0.69367468  0.37109267    -0.38200
N600        N  0.70158817  0.92556986  0.50777742    -0.38200
N601        N  0.60940312  0.67188999  0.48564582    -0.37600
N602        N  0.74887504  0.94998192  0.39332671    -0.37600
C603        C  0.69689864  0.89583725  0.09560039    -0.04300
C604        C  0.70439280  0.86644832  0.06629517    -0.01400
C605        C  0.68401719  0.86049563  0.02664434     0.03600
C606        C  0.65417184  0.88209361  0.01593853    -0.04300
C607        C  0.64638671  0.91116884  0.04500870    -0.01400
C608        C  0.66822942  0.91870452  0.08427992     0.03600
C609        C  0.73060626  0.83963512  0.07718595     0.38200
C610        C  0.61708562  0.93475446  0.03417491     0.38200
C611        C  0.66173581  0.95095052  0.11269282     0.36600
C612        C  0.69280236  0.83070000  0.99712598     0.36600
N613        N  0.65647080  0.97665951  0.13529266    -0.38200
N614        N  0.70017513  0.80726291  0.97357358    -0.38200
N615        N  0.59357552  0.95343279  0.02559364    -0.37600
N616        N  0.75119803  0.81793581  0.08567824    -0.37600
C617        C  0.72407947  0.00643780  0.31382179    -0.04300
C618        C  0.67709449  0.98927904  0.33345318    -0.01400
C619        C  0.67443935  0.01140048  0.36996710     0.03600
C620        C  0.71847699  0.05044581  0.38684017    -0.04300
C621        C  0.76431812  0.07075616  0.36523280    -0.01400
C622        C  0.76706913  0.04882000  0.32861691     0.03600
C623        C  0.63188205  0.94692564  0.31779771     0.38200
C624        C  0.80829740  0.11494554  0.38005274     0.38200
C625        C  0.81412465  0.06946325  0.30619964     0.36600
C626        C  0.62648485  0.99356791  0.39057773     0.36600
N627        N  0.85159125  0.08607916  0.28823598    -0.38200
N628        N  0.58826304  0.97951019  0.40692079    -0.38200
N629        N  0.84345997  0.15040835  0.39144811    -0.37600
N630        N  0.59573921  0.91329386  0.30535219    -0.37600
C631        C  0.48182668  0.36390542  0.41407351    -0.04300
C632        C  0.48026586  0.38282451  0.37470799    -0.01400
C633        C  0.52126055  0.39864525  0.34741761     0.03600
C634        C  0.56488172  0.39782210  0.36021184    -0.04300
C635        C  0.57079943  0.39292849  0.40294174    -0.01400
C636        C  0.52884509  0.37440406  0.42956873     0.03600
C637        C  0.43470552  0.38193687  0.36114537     0.38200
C638        C  0.61962456  0.40579470  0.41952719     0.38200
C639        C  0.53334229  0.36260139  0.47176125     0.36600
C640        C  0.51716523  0.41328831  0.30603273     0.36600
N641        N  0.53699375  0.35330890  0.50548957    -0.38200
N642        N  0.51386970  0.42534817  0.27311990    -0.38200
N643        N  0.65860609  0.41644047  0.43290756    -0.37600
N644        N  0.39835116  0.38109088  0.35024327    -0.37600
C645        C  0.68305647  0.17502251  0.43160771    -0.04300
C646        C  0.72249014  0.22191714  0.41910584    -0.01400
C647        C  0.71483064  0.24887443  0.38757918    -0.01600
C648        C  0.66714460  0.22969948  0.36867525    -0.04300
C649        C  0.62672144  0.18467838  0.38334874    -0.01400
C650        C  0.63460598  0.15765063  0.41484277     0.03600
C651        C  0.77231400  0.24045311  0.43606033     0.38200
C652        C  0.57722622  0.16596356  0.36580929     0.38200
C653        C  0.59338009  0.11028247  0.42866079     0.36600
C654        C  0.75729786  0.29489786  0.37266283     0.36600
N655        N  0.56048357  0.07252458  0.43977038    -0.38200
N656        N  0.79124645  0.33141520  0.36071751    -0.38200
N657        N  0.53777249  0.15107636  0.35168109    -0.37600
N658        N  0.81218726  0.25559623  0.44937643    -0.37600
C659        C  0.74472013  0.28272419  0.15528144    -0.04300
C660        C  0.73027294  0.23157628  0.15317340    -0.01400
C661        C  0.74518228  0.21320415  0.11961968     0.03600
C662        C  0.77654765  0.24577575  0.08849224    -0.04300
C663        C  0.78731865  0.29574570  0.08866727    -0.01400
C664        C  0.77127414  0.31413808  0.12162179     0.03600
C665        C  0.70357361  0.19833476  0.18708028     0.38200
C666        C  0.81814186  0.32910578  0.05620734     0.38200
C667        C  0.78258567  0.36560918  0.12075163     0.36600
C668        C  0.73240564  0.16125693  0.11899869     0.36600
N669        N  0.79169570  0.40670095  0.11985297    -0.38200
N670        N  0.72239918  0.11990571  0.11851594    -0.38200
N671        N  0.84271726  0.35565301  0.03025050    -0.37600
N672        N  0.68261668  0.17195699  0.21428030    -0.37600
C673        C  0.89818782  0.67980742  0.51180277    -0.04300
C674        C  0.93625837  0.67943945  0.53626751    -0.01400
C675        C  0.94563161  0.69971106  0.57614269     0.03600
C676        C  0.91904863  0.72278404  0.59102232    -0.04300
C677        C  0.88129166  0.72333599  0.56664099    -0.01400
C678        C  0.87018151  0.70116937  0.52780505     0.03600
C679        C  0.96599662  0.65848486  0.52060917     0.38200
C680        C  0.85175613  0.74460018  0.58259839     0.38200
C681        C  0.82756056  0.69781846  0.50557917     0.36600
C682        C  0.97973298  0.69355692  0.60308550     0.36600
N683        N  0.79342160  0.69502836  0.48809871    -0.38200
N684        N  0.00595853  0.68788263  0.62522736    -0.38200
N685        N  0.82805910  0.76120259  0.59547390    -0.37600
N686        N  0.98976111  0.64177720  0.50809189    -0.37600
C687        C  0.82563994  0.47164103  0.35284416    -0.04300
C688        C  0.86992407  0.51401039  0.33905535    -0.01400
C689        C  0.89536865  0.55511265  0.36532240     0.03600
C690        C  0.87531583  0.55459853  0.40447787    -0.04300
C691        C  0.83839322  0.50899403  0.42102109    -0.01400
C692        C  0.81448167  0.46703325  0.39553874     0.03600
C693        C  0.88744329  0.51716982  0.29743779     0.38200
C694        C  0.82088294  0.50663015  0.46260960     0.38200
C695        C  0.77620537  0.42011526  0.41302113     0.36600
C696        C  0.93925845  0.60008621  0.35074921     0.36600
N697        N  0.74557869  0.38290529  0.42712428    -0.38200
N698        N  0.97422942  0.63602132  0.33922055    -0.38200
N699        N  0.80679003  0.50482338  0.49573609    -0.37600
N700        N  0.90186544  0.51984286  0.26431512    -0.37600
C701        C  0.34058050  0.13873443  0.98114502    -0.04300
C702        C  0.33787530  0.17719581  0.95965108    -0.01400
C703        C  0.31885560  0.16943590  0.91924819     0.03600
C704        C  0.30268034  0.12328912  0.89949263    -0.04300
C705        C  0.30595567  0.08509070  0.92067416    -0.01400
C706        C  0.32466112  0.09264600  0.96117732     0.03600
C707        C  0.35301835  0.22434687  0.97950941     0.38200
C708        C  0.28843653  0.03731363  0.90123305     0.38200
C709        C  0.32814954  0.05289467  0.98209941     0.36600
C710        C  0.31662322  0.20953887  0.89776900     0.36600
N711        N  0.33088557  0.02120148  0.99886106    -0.38200
N712        N  0.31501835  0.24173814  0.88085614    -0.38200
N713        N  0.27414493  0.99906365  0.88583438    -0.37600
N714        N  0.36512770  0.26200465  0.99528162    -0.37600
C715        C  0.52411776  0.26718429  0.16577267    -0.04300
C716        C  0.53163897  0.24029681  0.13417410    -0.01400
C717        C  0.49693958  0.21999869  0.10171509     0.03600
C718        C  0.45450988  0.22634985  0.10025560    -0.04300
C719        C  0.44963387  0.25719539  0.12939033    -0.01400
C720        C  0.48397735  0.27734617  0.16209400     0.03600
C721        C  0.57529914  0.23363362  0.13460602     0.38200
C722        C  0.40728855  0.26581025  0.12667033     0.38200
C723        C  0.47603356  0.30605164  0.19311687     0.36600
C724        C  0.50322274  0.19000881  0.07090183     0.36600
N725        N  0.46940617  0.32881323  0.21781669    -0.38200
N726        N  0.50819063  0.16616020  0.04621000    -0.38200
N727        N  0.37343243  0.27250914  0.12407948    -0.37600
N728        N  0.61004109  0.22817421  0.13463805    -0.37600
C729        C  0.08381095  0.80146384  0.09100457    -0.04300
C730        C  0.12332619  0.83623518  0.06581562    -0.01400
C731        C  0.13157797  0.82248498  0.02684257     0.03600
C732        C  0.09979796  0.77387464  0.01199030    -0.04300
C733        C  0.05901863  0.73955519  0.03656499    -0.01400
C734        C  0.05114219  0.75334010  0.07599800     0.03600
C735        C  0.15624059  0.88645518  0.08034179     0.38200
C736        C  0.02490435  0.69027504  0.02120618     0.38200
C737        C  0.01071883  0.71757798  0.10181039     0.36600
C738        C  0.17451476  0.85805940  0.00285355     0.36600
N739        N  0.97861532  0.68929915  0.12270954    -0.38200
N740        N  0.20874748  0.88638525  0.98376144    -0.38200
N741        N  0.99768155  0.65092544  0.00891823    -0.37600
N742        N  0.18248355  0.92646223  0.09184082    -0.37600
C743        C  0.15499909  0.87349249  0.39480560    -0.04300
C744        C  0.20269267  0.91135772  0.40787929    -0.01400
C745        C  0.22074757  0.90880091  0.44725515     0.03600
C746        C  0.19168643  0.86813961  0.47386039    -0.04300
C747        C  0.14333178  0.83142891  0.46153930    -0.01400
C748        C  0.12480856  0.83436884  0.42261868     0.03600
C749        C  0.23423186  0.95197393  0.38037058     0.38200
C750        C  0.11193442  0.79110363  0.48940263     0.38200
C751        C  0.07382213  0.79746129  0.41170941     0.36600
C752        C  0.27019786  0.94726047  0.45990836     0.36600
N753        N  0.03313680  0.76808046  0.40316430    -0.38200
N754        N  0.30962748  0.97785611  0.47012679    -0.38200
N755        N  0.08682640  0.75895419  0.51159780    -0.37600
N756        N  0.25948891  0.98448528  0.35850655    -0.37600
C757        C  0.93330104  0.74794755  0.30026635    -0.04300
C758        C  0.88907501  0.70257487  0.29407729    -0.01400
C759        C  0.85594261  0.68037559  0.32730230     0.03600
C760        C  0.87013163  0.70242142  0.36641108    -0.04300
C761        C  0.90473652  0.75371151  0.36833664    -0.01400
C762        C  0.93810262  0.77619670  0.33549655     0.03600
C763        C  0.88002135  0.67737796  0.25525562     0.38200
C764        C  0.90994708  0.78144791  0.40529160     0.38200
C765        C  0.97994353  0.82653805  0.33937560     0.36600
C766        C  0.81137359  0.63203940  0.32295521     0.36600
N767        N  0.01344505  0.86653895  0.34264459    -0.38200
N768        N  0.77582878  0.59340411  0.31951476    -0.38200
N769        N  0.91401730  0.80363781  0.43474371    -0.37600
N770        N  0.87264646  0.65742330  0.22413866    -0.37600
C771        C  0.30196008  0.07207758  0.12184626    -0.04300
C772        C  0.32263040  0.04805488  0.14532517    -0.01400
C773        C  0.29352877  0.01331813  0.17577938     0.03600
C774        C  0.24403597  0.00320915  0.18336703    -0.04300
C775        C  0.22357248  0.02760278  0.16003647    -0.01400
C776        C  0.25247891  0.06183304  0.12919608     0.03600
C777        C  0.37339508  0.05795310  0.13724873     0.38200
C778        C  0.17163969  0.01513106  0.16586220     0.38200
C779        C  0.23142320  0.08672737  0.10518352     0.36600
C780        C  0.31417669  0.98730677  0.19881835     0.36600
N781        N  0.21465910  0.10650489  0.08590873    -0.38200
N782        N  0.33062347  0.96642591  0.21700058    -0.38200
N783        N  0.13017590  0.00500576  0.17033585    -0.37600
N784        N  0.41386638  0.06597329  0.13072457    -0.37600
C785        C  0.84241612  0.71987729  0.88980273    -0.04300
C786        C  0.87174192  0.71173482  0.91906492    -0.01400
C787        C  0.85042456  0.68786525  0.95659758     0.03600
C788        C  0.79966376  0.67194372  0.96550986    -0.04300
C789        C  0.77100304  0.68242173  0.93733625    -0.01400
C790        C  0.79217034  0.70602398  0.89949155     0.03600
C791        C  0.92443595  0.72874444  0.91088780     0.38200
C792        C  0.71930469  0.66795917  0.94695808     0.38200
C793        C  0.76148423  0.71394165  0.86990465     0.36600
C794        C  0.88161511  0.68168956  0.98672937     0.36600
N795        N  0.73701015  0.72026778  0.84628940    -0.38200
N796        N  0.90731331  0.67767797  0.01053317    -0.38200
N797        N  0.67810869  0.65654300  0.95468042    -0.37600
N798        N  0.96640704  0.74228094  0.90441074    -0.37600
C799        C  0.72708317  0.48034091  0.14459032    -0.04300
C800        C  0.68831379  0.47047372  0.11609038    -0.01400
C801        C  0.69914095  0.49875119  0.07965323     0.03600
C802        C  0.74835011  0.53726992  0.07137542    -0.04300
C803        C  0.78782880  0.54206548  0.09653058    -0.01400
C804        C  0.77740625  0.51434357  0.13326733     0.03600
C805        C  0.63697442  0.43169786  0.12403854     0.38200
C806        C  0.83902590  0.57947210  0.08679296     0.38200
C807        C  0.81855282  0.52366081  0.16041185     0.36600
C808        C  0.65880489  0.49182267  0.05241606     0.36600
N809        N  0.85159963  0.53125048  0.18184300    -0.38200
N810        N  0.62665079  0.48643400  0.03075954    -0.38200
N811        N  0.88022464  0.60895595  0.07966174    -0.37600
N812        N  0.59590006  0.40096774  0.13012478    -0.37600
C813        C  0.74490620  0.68394513  0.10380642    -0.04300
C814        C  0.69793659  0.67909037  0.11341694    -0.01400
C815        C  0.69194104  0.69923389  0.14995113     0.03600
C816        C  0.73334488  0.72515410  0.17622041    -0.04300
C817        C  0.77942748  0.72730775  0.16770095    -0.01400
C818        C  0.78521920  0.70662618  0.13151665     0.03600
C819        C  0.65618259  0.65399528  0.08541046     0.38200
C820        C  0.82116777  0.75206390  0.19580852     0.38200
C821        C  0.83263317  0.70854559  0.12274410     0.36600
C822        C  0.64396319  0.69556440  0.15949849     0.36600
N823        N  0.87032268  0.70993281  0.11569738    -0.38200
N824        N  0.60562168  0.69235460  0.16727322    -0.38200
N825        N  0.85438291  0.77174198  0.21826828    -0.37600
N826        N  0.62303139  0.63417576  0.06291613    -0.37600
C827        C  0.26766684  0.53967646  0.26458375    -0.04300
C828        C  0.22639565  0.51094729  0.29110192    -0.01400
C829        C  0.20224461  0.45810417  0.29143386     0.03600
C830        C  0.21885750  0.43266571  0.26549269    -0.04300
C831        C  0.26018915  0.46112715  0.23921078    -0.01400
C832        C  0.28461411  0.51400474  0.23897547     0.03600
C833        C  0.20950370  0.53551569  0.31940882     0.38200
C834        C  0.27593631  0.43594012  0.21048552     0.38200
C835        C  0.32627819  0.54160602  0.21103673     0.36600
C836        C  0.16070128  0.42983582  0.31938975     0.36600
N837        N  0.35964039  0.56319100  0.18877077    -0.38200
N838        N  0.12755262  0.40723815  0.34162948    -0.38200
N839        N  0.28831717  0.41598606  0.18727424    -0.37600
N840        N  0.19568796  0.55462858  0.34222299    -0.37600
C841        C  0.52868483  0.76291931  0.24985404    -0.04300
C842        C  0.50364899  0.75878996  0.28723844    -0.01400
C843        C  0.45038968  0.73119241  0.28974036     0.03600
C844        C  0.42132056  0.70705708  0.25494274    -0.04300
C845        C  0.44629203  0.71215241  0.21733250    -0.01400
C846        C  0.49957716  0.73979064  0.21480927     0.03600
C847        C  0.53290820  0.78288083  0.32331048     0.38200
C848        C  0.41695354  0.68989538  0.18090758     0.38200
C849        C  0.52448526  0.74468924  0.17599551     0.36600
C850        C  0.42540045  0.72733669  0.32830833     0.36600
N851        N  0.54425173  0.74865706  0.14492964    -0.38200
N852        N  0.40537037  0.72432062  0.35905555    -0.38200
N853        N  0.39344399  0.67242555  0.15181226    -0.37600
N854        N  0.55644035  0.80217460  0.35200219    -0.37600
C855        C  0.25199126  0.69259826  0.25822843    -0.04300
C856        C  0.24431430  0.70987470  0.22029187    -0.01400
C857        C  0.21340480  0.73201607  0.21747618     0.03600
C858        C  0.19038438  0.73843260  0.25282569    -0.04300
C859        C  0.19750871  0.72034886  0.29079717    -0.01400
C860        C  0.22800014  0.69755698  0.29340127     0.03600
C861        C  0.26840255  0.70480027  0.18390125     0.38200
C862        C  0.17542112  0.72719005  0.32766413     0.38200
C863        C  0.23646099  0.68109009  0.33271722     0.36600
C864        C  0.20420624  0.74695448  0.17769309     0.36600
N865        N  0.24345002  0.66833045  0.36419988    -0.38200
N866        N  0.19664393  0.75864834  0.14594863    -0.38200
N867        N  0.15786336  0.73273636  0.35709428    -0.37600
N868        N  0.28784236  0.70085084  0.15497503    -0.37600
loop_ 
_geom_bond_atom_site_label_1 
_geom_bond_atom_site_label_2 
_geom_bond_distance 
_geom_bond_site_symmetry_2 
_ccdc_geom_bond_type 
C1            N2   1.367   1_565  A
C1            N6   1.373   1_455  A
C1           C36   1.507       .  S
N2            C3   1.367       .  A
C3            N4   1.370   1_455  A
C3          C131   1.501       .  S
N4            C5   1.370   1_545  A
C5            N6   1.372       .  A
C5           C96   1.511       .  S
C7            N8   1.364       .  A
C7           N12   1.366       .  A
C7          C855   1.504       .  S
N8            C9   1.366       .  A
C9           N10   1.366       .  A
C9          C827   1.516       .  S
N10          C11   1.364       .  A
C11          N12   1.365       .  A
C11         C844   1.504       .  S
C13          N14   1.361       .  A
C13          N18   1.372       .  A
C13         C788   1.486   1_554  S
N14          C15   1.354       .  A
C15          N16   1.338       .  A
C15         C813   1.457       .  S
N16          C17   1.342       .  A
C17          N18   1.365       .  A
C17         C802   1.471       .  S
Zn19         O23   1.982       .  S
Zn19         O24   2.085       .  S
Zn19         O28   2.003   1_455  S
Zn19         O35   2.084       .  S
Zn20         O23   1.969       .  S
Zn20         O25   2.096       .  S
Zn20         O27   2.095       .  S
Zn20         O31   2.029       .  S
Zn21         O23   1.933       .  S
Zn21         O26   1.988       .  S
Zn21         O29   1.988       .  S
Zn21         O32   2.083       .  S
Zn22         O23   1.924       .  S
Zn22         O30   2.028       .  S
Zn22         O33   1.959       .  S
Zn22         O34   1.977       .  S
O24          C36   1.281       .  A
O25          C37   1.284       .  A
O26          C38   1.276   1_455  A
O27          C36   1.284       .  A
O28          C38   1.272       .  A
O29          C37   1.271       .  A
O30          C39   1.273       .  A
O31          C40   1.277       .  A
O32          C39   1.280       .  A
O33          C40   1.269       .  A
O34          C41   1.270       .  A
O35          C41   1.283       .  A
C37         C743   1.503       .  S
C38         C757   1.464       .  S
C39         C858   1.512       .  S
C40         C774   1.470   1_565  S
C41         C729   1.488       .  S
C42          N43   1.362       .  A
C42          N47   1.375       .  A
C42         C701   1.503   1_554  S
N43          C44   1.355       .  A
C44          N45   1.343       .  A
C44         C771   1.470       .  S
N45          C46   1.346       .  A
C46          N47   1.370       .  A
C46         C718   1.482       .  S
C48          N49   1.362       .  A
C48          N53   1.370       .  A
C48         C673   1.498       .  S
N49          C50   1.355       .  A
C50          N51   1.345       .  A
C50         C760   1.484       .  S
N51          C52   1.347       .  A
C52          N53   1.365       .  A
C52         C690   1.483       .  S
Zn54         O58   1.955       .  S
Zn54         O59   2.102       .  S
Zn54         O63   2.021       .  S
Zn54         O70   2.055       .  S
Zn55         O58   1.897       .  S
Zn55         O60   1.937       .  S
Zn55         O62   1.942       .  S
Zn55         O66   1.961       .  S
Zn56         O58   1.967       .  S
Zn56         O61   2.052       .  S
Zn56         O64   2.099       .  S
Zn56         O67   2.005       .  S
Zn57         O58   1.958       .  S
Zn57         O65   2.030       .  S
Zn57         O68   2.099       .  S
Zn57         O69   2.010       .  S
O59          C71   1.285       .  A
O60          C72   1.265       .  A
O61          C73   1.278       .  A
O62          C71   1.264       .  A
O63          C73   1.273       .  A
O64          C72   1.283       .  A
O65          C74   1.278       .  A
O66          C75   1.266       .  A
O67          C74   1.273       .  A
O68          C75   1.282       .  A
O69          C76   1.273       .  A
O70          C76   1.282       .  A
C71         C648   1.490       .  S
C72         C687   1.501       .  S
C73         C659   1.505       .  S
C74         C799   1.496       .  S
C75         C634   1.509       .  S
C76         C715   1.498       .  S
Zn77         O81   1.953       .  S
Zn77         O82   1.971       .  S
Zn77         O86   2.099       .  S
Zn77         O93   2.031       .  S
Zn78         O81   1.963       .  S
Zn78         O83   2.002       .  S
Zn78         O85   1.991       .  S
Zn78         O89   2.055       .  S
Zn79         O81   1.952       .  S
Zn79         O84   2.097       .  S
Zn79         O87   2.044       .  S
Zn79         O90   1.948       .  S
Zn80         O81   1.976       .  S
Zn80         O88   2.022       .  S
Zn80         O91   2.059       .  S
Zn80         O92   2.036       .  S
O82          C94   1.272       .  A
O83          C95   1.272       .  A
O84          C96   1.279       .  A
O85          C94   1.274       .  A
O86          C96   1.280       .  A
O87          C95   1.278       .  A
O88          C97   1.278       .  A
O89          C98   1.272       .  A
O90          C97   1.269       .  A
O91          C98   1.273       .  A
O92          C99   1.277       .  A
O93          C99   1.277       .  A
C94         C617   1.467   1_565  S
C95         C603   1.501       .  S
C97         C816   1.459       .  S
C98         C841   1.504       .  S
C99         C589   1.507       .  S
C100        N101   1.374       .  A
C100        N105   1.360       .  A
C100        C575   1.493       .  S
N101        C102   1.370       .  A
C102        N103   1.343       .  A
C102        C645   1.481       .  S
N103        C104   1.340       .  A
C104        N105   1.355       .  A
C104        C620   1.459       .  S
C106        N107   1.374       .  A
C106        N111   1.359       .  A
C106        C547   1.499       .  S
N107        C108   1.372       .  A
C108        N109   1.349       .  A
C108        C631   1.496       .  S
N109        C110   1.344       .  A
C110        N111   1.354       .  A
C110        C561   1.494       .  S
Zn112       O116   1.931       .  S
Zn112       O117   1.969       .  S
Zn112       O121   2.077       .  S
Zn112       O128   2.037       .  S
Zn113       O116   1.940       .  S
Zn113       O118   2.021       .  S
Zn113       O120   2.033       .  S
Zn113       O124   2.062       .  S
Zn114       O116   1.933       .  S
Zn114       O119   2.098       .  S
Zn114       O122   2.058       .  S
Zn114       O125   1.961       .  S
Zn115       O116   1.941       .  S
Zn115       O123   2.009       .  S
Zn115       O126   2.041       .  S
Zn115       O127   2.027       .  S
O117        C129   1.270       .  A
O118        C130   1.274       .  A
O119        C131   1.283       .  A
O120        C129   1.281       .  A
O121        C131   1.280       .  A
O122        C130   1.280       .  A
O123        C132   1.277       .  A
O124        C133   1.278       .  A
O125        C132   1.271       .  A
O126        C133   1.275       .  A
O127        C134   1.275       .  A
O128        C134   1.277       .  A
C129        C564   1.487       .  S
C130        C519   1.509       .  S
C132        C536   1.464   1_455  S
C133        C830   1.508       .  S
C134        C505   1.487       .  S
C135        N136   1.361       .  A
C135        N140   1.379       .  A
C135        C491   1.505   1_554  S
N136        C137   1.353       .  A
C137        N138   1.338       .  A
C137        C533   1.458       .  S
N138        C139   1.343       .  A
C139        N140   1.374       .  A
C139        C662   1.486       .  S
C141        N142   1.367   1_545  A
C141        N146   1.371   1_655  A
C141        C200   1.505       .  S
N142        C143   1.367       .  A
C143        N144   1.374   1_655  A
C143        C255   1.509       .  S
N144        C145   1.374   1_565  A
C145        N146   1.371       .  A
C145        C168   1.515       .  S
Zn147       O151   1.969       .  S
Zn147       O152   2.051       .  S
Zn147       O156   2.074       .  S
Zn147       O163   2.036       .  S
Zn148       O151   1.951       .  S
Zn148       O153   1.962       .  S
Zn148       O155   2.045       .  S
Zn148       O159   2.102       .  S
Zn149       O151   1.954       .  S
Zn149       O154   2.067       .  S
Zn149       O157   2.006       .  S
Zn149       O160   2.028       .  S
Zn150       O151   1.944       .  S
Zn150       O158   2.058       .  S
Zn150       O161   2.112       .  S
Zn150       O162   1.940       .  S
O152        C164   1.278       .  A
O153        C165   1.270       .  A
O154        C166   1.277       .  A
O155        C164   1.277       .  A
O156        C166   1.279       .  A
O157        C165   1.277       .  A
O158        C167   1.280       .  A
O159        C168   1.282       .  A
O160        C167   1.274       .  A
O161        C168   1.283       .  A
O162        C169   1.269       .  A
O163        C169   1.280       .  A
C164        C704   1.499       .  S
C165        C477   1.490       .  S
C166        C452   1.520       .  S
C167        C550   1.501       .  S
C169        C463   1.471   1_545  S
C170        N171   1.363   1_554  A
C170        N175   1.373   1_554  A
C170        C522   1.493       .  S
N171        C172   1.358       .  A
C172        N173   1.342       .  A
C172        C480   1.482       .  S
N173        C174   1.344       .  A
C174        N175   1.368       .  A
C174        C438   1.480       .  S
C176        N177   1.361       .  A
C176        N181   1.368       .  A
C176        C508   1.491       .  S
N177        C178   1.358       .  A
C178        N179   1.346       .  A
C178        C410   1.493       .  S
N179        C180   1.346       .  A
C180        N181   1.364       .  A
C180        C421   1.474       .  S
Zn182       O186   1.903       .  S
Zn182       O187   1.989       .  S
Zn182       O191   1.975       .  S
Zn182       O198   2.056       .  S
Zn183       O186   1.950       .  S
Zn183       O188   2.090       .  S
Zn183       O190   2.094       .  S
Zn183       O194   1.999       .  S
Zn184       O186   1.958       .  S
Zn184       O189   2.028       .  S
Zn184       O192   2.093       .  S
Zn184       O195   2.126       .  S
Zn185       O186   1.906       .  S
Zn185       O193   1.988       .  S
Zn185       O196   1.979       .  S
Zn185       O197   2.043       .  S
O187        C199   1.271       .  A
O188        C200   1.286       .  A
O189        C201   1.277       .  A
O190        C199   1.285       .  A
O191        C201   1.275       .  A
O192        C200   1.285       .  A
O193        C202   1.271       .  A
O194        C203   1.272   1_545  A
O195        C202   1.290       .  A
O196        C203   1.274   1_545  A
O197        C204   1.277       .  A
O198        C204   1.280       .  A
C199        C578   1.496       .  S
C201        C407   1.477   1_655  S
C202        C494   1.514       .  S
C203        C396   1.460       .  S
C204        C379   1.508       .  S
C205        N206   1.370       .  A
C205        N210   1.362       .  A
C205        C732   1.495   1_556  S
N206        C207   1.365       .  A
C207        N208   1.346       .  A
C207        C351   1.478       .  S
N208        C209   1.345       .  A
C209        N210   1.356       .  A
C209        C365   1.489       .  S
Zn211       O215   1.887       .  S
Zn211       O216   1.940       .  S
Zn211       O220   1.940       .  S
Zn211       O227   1.936       .  S
Zn212       O215   1.945       .  S
Zn212       O217   2.002       .  S
Zn212       O219   2.089       .  S
Zn212       O223   2.053       .  S
Zn213       O215   1.942       .  S
Zn213       O218   2.094       .  S
Zn213       O221   2.063       .  S
Zn213       O224   1.973       .  S
Zn214       O215   1.946       .  S
Zn214       O222   2.068       .  S
Zn214       O225   2.001       .  S
Zn214       O226   2.088       .  S
O216        C228   1.263       .  A
O217        C229   1.273       .  A
O218        C230   1.285       .  A
O219        C228   1.282       .  A
O220        C230   1.263       .  A
O221        C229   1.282       .  A
O222        C231   1.279       .  A
O223        C232   1.279       .  A
O224        C231   1.269       .  A
O225        C232   1.274       .  A
O226        C233   1.283       .  A
O227        C233   1.263       .  A
C228        C424   1.479       .  S
C229        C435   1.512       .  S
C230        C309   1.481       .  S
C231        C323   1.490       .  S
C232        C354   1.488       .  S
C233        C337   1.475       .  S
Zn234       O238   1.907       .  S
Zn234       O239   1.936       .  S
Zn234       O243   2.021       .  S
Zn234       O250   1.955       .  S
Zn235       O238   1.966       .  S
Zn235       O240   2.066       .  S
Zn235       O242   2.019       .  S
Zn235       O246   2.092       .  S
Zn236       O238   1.927       .  S
Zn236       O241   2.092       .  S
Zn236       O244   1.980       .  S
Zn236       O247   1.988       .  S
Zn237       O238   1.974       .  S
Zn237       O245   2.003   1_655  S
Zn237       O248   2.097       .  S
Zn237       O249   2.089       .  S
O239        C251   1.267       .  A
O240        C252   1.281       .  A
O241        C253   1.280       .  A
O242        C251   1.275       .  A
O243        C253   1.271       .  A
O244        C252   1.271       .  A
O245        C254   1.273       .  A
O246        C255   1.283       .  A
O247        C254   1.276   1_655  A
O248        C255   1.283       .  A
O249        C256   1.284       .  A
O250        C256   1.267       .  A
C251        C295   1.477       .  S
C252        C785   1.490       .  S
C253        C281   1.506       .  S
C254        C368   1.461       .  S
C256        C676   1.482       .  S
C257        N258   1.371       .  A
C257        N262   1.360       .  A
C257        C592   1.486       .  S
N258        C259   1.367       .  A
C259        N260   1.344       .  A
C259        C312   1.477       .  S
N260        C261   1.340       .  A
C261        N262   1.354       .  A
C261        C298   1.458       .  S
C263        N264   1.358       .  A
C263        N268   1.368       .  A
C263        C606   1.493   1_556  S
N264        C265   1.354       .  A
C265        N266   1.348       .  A
C265        C393   1.494       .  S
N266        C267   1.350       .  A
C267        N268   1.365       .  A
C267        C326   1.483       .  S
C269        N270   1.364       .  A
C269        N274   1.373       .  A
C269        C746   1.495       .  S
N270        C271   1.358       .  A
C271        N272   1.337       .  A
C271        C466   1.463       .  S
N272        C273   1.340       .  A
C273        N274   1.366       .  A
C273        C340   1.470       .  S
C275        N276   1.363       .  A
C275        N280   1.363       .  A
C275        C382   1.503       .  S
N276        C277   1.366       .  A
C277        N278   1.370       .  A
C277        C449   1.522       .  S
N278        C279   1.369       .  A
C279        N280   1.363       .  A
C279        C284   1.506       .  S
C281        C282   1.416       .  A
C281        C286   1.417       .  A
C282        C283   1.424       .  A
C282        C287   1.450       .  S
C283        C284   1.416       .  A
C283        C290   1.449       .  S
C284        C285   1.414       .  A
C285        C286   1.420       .  A
C285        C288   1.449       .  S
C286        C289   1.451       .  S
C287        N294   1.158       .  T
C288        N293   1.157       .  T
C289        N291   1.157       .  T
C290        N292   1.157       .  T
C295        C296   1.417       .  A
C295        C300   1.418       .  A
C296        C297   1.401       .  A
C296        C301   1.454       .  S
C297        C298   1.408       .  A
C297        C304   1.454       .  S
C298        C299   1.406       .  A
C299        C300   1.407       .  A
C299        C302   1.452       .  S
C300        C303   1.451       .  S
C301        N308   1.158       .  T
C302        N307   1.157       .  T
C303        N305   1.158       .  T
C304        N306   1.157       .  T
C309        C310   1.410       .  A
C309        C314   1.416       .  A
C310        C311   1.411       .  A
C310        C315   1.451       .  S
C311        C312   1.415       .  A
C311        C318   1.451       .  S
C312        C313   1.409       .  A
C313        C314   1.412       .  A
C313        C316   1.450       .  S
C314        C317   1.451       .  S
C315        N322   1.157       .  T
C316        N321   1.157       .  T
C317        N319   1.157       .  T
C318        N320   1.157       .  T
C323        C324   1.409       .  A
C323        C328   1.421       .  A
C324        C325   1.414       .  A
C324        C329   1.449       .  S
C325        C326   1.417       .  A
C325        C332   1.451       .  S
C326        C327   1.407       .  A
C327        C328   1.410       .  A
C327        C330   1.452       .  S
C328        C331   1.452       .  S
C329        N336   1.157       .  T
C330        N335   1.157       .  T
C331        N333   1.157       .  T
C332        N334   1.157       .  T
C337        C338   1.413       .  A
C337        C342   1.410       .  A
C338        C339   1.410       .  A
C338        C343   1.452       .  S
C339        C340   1.410       .  A
C339        C346   1.451       .  S
C340        C341   1.412       .  A
C341        C342   1.412       .  A
C341        C344   1.448       .  S
C342        C345   1.451       .  S
C343        N350   1.157       .  T
C344        N349   1.156       .  T
C345        N347   1.157       .  T
C346        N348   1.157       .  T
C351        C352   1.417       .  A
C351        C356   1.406       .  A
C352        C353   1.414       .  A
C352        C357   1.450       .  S
C353        C354   1.408       .  A
C353        C360   1.449       .  S
C354        C355   1.418       .  A
C355        C356   1.410       .  A
C355        C358   1.450       .  S
C356        C359   1.451       .  S
C357        N364   1.157       .  T
C358        N363   1.156       .  T
C359        N361   1.157       .  T
C360        N362   1.157       .  T
C365        C366   1.410       .  A
C365        C370   1.422       .  A
C366        C367   1.404       .  A
C366        C371   1.450       .  S
C367        C368   1.412       .  A
C367        C374   1.452       .  S
C368        C369   1.399       .  A
C369        C370   1.406       .  A
C369        C372   1.449       .  S
C370        C373   1.451       .  S
C371        N378   1.157       .  T
C372        N377   1.157       .  T
C373        N375   1.158       .  T
C374        N376   1.157       .  T
C379        C380   1.417       .  A
C379        C384   1.419       .  A
C380        C381   1.420       .  A
C380        C385   1.451       .  S
C381        C382   1.415       .  A
C381        C388   1.449       .  S
C382        C383   1.414       .  A
C383        C384   1.420       .  A
C383        C386   1.450       .  S
C384        C387   1.451       .  S
C385        N392   1.158       .  T
C386        N391   1.157       .  T
C387        N389   1.158       .  T
C388        N390   1.157       .  T
C393        C394   1.421       .  A
C393        C398   1.428       .  A
C394        C395   1.403       .  A
C394        C399   1.452       .  S
C395        C396   1.407       .  A
C395        C402   1.455       .  S
C396        C397   1.397       .  A
C397        C398   1.407       .  A
C397        C400   1.449       .  S
C398        C401   1.452       .  S
C399        N406   1.158       .  T
C400        N405   1.157       .  T
C401        N403   1.158       .  T
C402        N404   1.157   1_565  T
C407        C408   1.405       .  A
C407        C412   1.416       .  A
C408        C409   1.411       .  A
C408        C413   1.449       .  S
C409        C410   1.423       .  A
C409        C416   1.451       .  S
C410        C411   1.411       .  A
C411        C412   1.404       .  A
C411        C414   1.451       .  S
C412        C415   1.453   1_455  S
C413        N420   1.157       .  T
C414        N419   1.158       .  T
C415        N417   1.157       .  T
C416        N418   1.158       .  T
C421        C422   1.410       .  A
C421        C426   1.412       .  A
C422        C423   1.409       .  A
C422        C427   1.451       .  S
C423        C424   1.413       .  A
C423        C430   1.452       .  S
C424        C425   1.412       .  A
C425        C426   1.413       .  A
C425        C428   1.450       .  S
C426        C429   1.450       .  S
C427        N434   1.157       .  T
C428        N433   1.157       .  T
C429        N431   1.157       .  T
C430        N432   1.157       .  T
C435        C436   1.430       .  A
C435        C440   1.419       .  A
C436        C437   1.413       .  A
C436        C441   1.450       .  S
C437        C438   1.402       .  A
C437        C444   1.451       .  S
C438        C439   1.412       .  A
C439        C440   1.417       .  A
C439        C442   1.450       .  S
C440        C443   1.449       .  S
C441        N448   1.157       .  T
C442        N447   1.157       .  T
C443        N445   1.157       .  T
C444        N446   1.157       .  T
C449        C450   1.421       .  A
C449        C454   1.420       .  A
C450        C451   1.423       .  A
C450        C455   1.452       .  S
C451        C452   1.418       .  A
C451        C458   1.451       .  S
C452        C453   1.420       .  A
C453        C454   1.426       .  A
C453        C456   1.451       .  S
C454        C457   1.450       .  S
C455        N462   1.158       .  T
C456        N461   1.158       .  T
C457        N459   1.157       .  T
C458        N460   1.157       .  T
C463        C464   1.416       .  A
C463        C468   1.410       .  A
C464        C465   1.403       .  A
C464        C469   1.453       .  S
C465        C466   1.407       .  A
C465        C472   1.453       .  S
C466        C467   1.414       .  A
C467        C468   1.406       .  A
C467        C470   1.452       .  S
C468        C471   1.451   1_565  S
C469        N476   1.157       .  T
C470        N475   1.157       .  T
C471        N473   1.157       .  T
C472        N474   1.157       .  T
C477        C478   1.412       .  A
C477        C482   1.421       .  A
C478        C479   1.403       .  A
C478        C483   1.454       .  S
C479        C480   1.419       .  A
C479        C486   1.452       .  S
C480        C481   1.412       .  A
C481        C482   1.409       .  A
C481        C484   1.451       .  S
C482        C485   1.453       .  S
C483        N490   1.158       .  T
C484        N489   1.157       .  T
C485        N487   1.158       .  T
C486        N488   1.157       .  T
C491        C492   1.411       .  A
C491        C496   1.420       .  A
C492        C493   1.420       .  A
C492        C497   1.451       .  S
C493        C494   1.427       .  A
C493        C500   1.452       .  S
C494        C495   1.415       .  A
C495        C496   1.421       .  A
C495        C498   1.450       .  S
C496        C499   1.451       .  S
C497        N504   1.157       .  T
C498        N503   1.157       .  T
C499        N501   1.157       .  T
C500        N502   1.158       .  T
C505        C506   1.416       .  A
C505        C510   1.408       .  A
C506        C507   1.413       .  A
C506        C511   1.452       .  S
C507        C508   1.410       .  A
C507        C514   1.451       .  S
C508        C509   1.417       .  A
C509        C510   1.416       .  A
C509        C512   1.449       .  S
C510        C513   1.449       .  S
C511        N518   1.157       .  T
C512        N517   1.157       .  T
C513        N515   1.157   1_455  T
C514        N516   1.157       .  T
C519        C520   1.422       .  A
C519        C524   1.423       .  A
C520        C521   1.418       .  A
C520        C525   1.450       .  S
C521        C522   1.410       .  A
C521        C528   1.451       .  S
C522        C523   1.411       .  A
C523        C524   1.417       .  A
C523        C526   1.452       .  S
C524        C527   1.452       .  S
C525        N532   1.157       .  T
C526        N531   1.157   1_554  T
C527        N529   1.158       .  T
C528        N530   1.157       .  T
C533        C534   1.409       .  A
C533        C538   1.407       .  A
C534        C535   1.403       .  A
C534        C539   1.453       .  S
C535        C536   1.412       .  A
C535        C542   1.453   1_655  S
C536        C537   1.412       .  A
C537        C538   1.403       .  A
C537        C540   1.452       .  S
C538        C541   1.452       .  S
C539        N546   1.157       .  T
C540        N545   1.157       .  T
C541        N543   1.157       .  T
C542        N544   1.157       .  T
C547        C548   1.416       .  A
C547        C552   1.415       .  A
C548        C549   1.414       .  A
C548        C553   1.453       .  S
C549        C550   1.416       .  A
C549        C556   1.453       .  S
C550        C551   1.417       .  A
C551        C552   1.421       .  A
C551        C554   1.449       .  S
C552        C555   1.449       .  S
C553        N560   1.157       .  T
C554        N559   1.157       .  T
C555        N557   1.157       .  T
C556        N558   1.158       .  T
C561        C562   1.411       .  A
C561        C566   1.420       .  A
C562        C563   1.407       .  A
C562        C567   1.452       .  S
C563        C564   1.423       .  A
C563        C570   1.452       .  S
C564        C565   1.410       .  A
C565        C566   1.407       .  A
C565        C568   1.451       .  S
C566        C569   1.452       .  S
C567        N574   1.158       .  T
C568        N573   1.157       .  T
C569        N571   1.158       .  T
C570        N572   1.158       .  T
C575        C576   1.416       .  A
C575        C580   1.411       .  A
C576        C577   1.420       .  A
C576        C581   1.450       .  S
C577        C578   1.414       .  A
C577        C584   1.450       .  S
C578        C579   1.415       .  A
C579        C580   1.413       .  A
C579        C582   1.450       .  S
C580        C583   1.450       .  S
C581        N588   1.157       .  T
C582        N587   1.157       .  T
C583        N585   1.157       .  T
C584        N586   1.157       .  T
C589        C590   1.426       .  A
C589        C594   1.420       .  A
C590        C591   1.414       .  A
C590        C595   1.452       .  S
C591        C592   1.408       .  A
C591        C598   1.453       .  S
C592        C593   1.410       .  A
C593        C594   1.417       .  A
C593        C596   1.451       .  S
C594        C597   1.450       .  S
C595        N602   1.157       .  T
C596        N601   1.157       .  T
C597        N599   1.157       .  T
C598        N600   1.158       .  T
C603        C604   1.420       .  A
C603        C608   1.420       .  A
C604        C605   1.413       .  A
C604        C609   1.453       .  S
C605        C606   1.416       .  A
C605        C612   1.453   1_554  S
C606        C607   1.412       .  A
C607        C608   1.415       .  A
C607        C610   1.451       .  S
C608        C611   1.452       .  S
C609        N616   1.158       .  T
C610        N615   1.157       .  T
C611        N613   1.157       .  T
C612        N614   1.158       .  T
C617        C618   1.416   1_545  A
C617        C622   1.410       .  A
C618        C619   1.403   1_565  A
C618        C623   1.453       .  S
C619        C620   1.407       .  A
C619        C626   1.453   1_545  S
C620        C621   1.410       .  A
C621        C622   1.404       .  A
C621        C624   1.451       .  S
C622        C625   1.451       .  S
C623        N630   1.157       .  T
C624        N629   1.157       .  T
C625        N627   1.157       .  T
C626        N628   1.157       .  T
C631        C632   1.421       .  A
C631        C636   1.406       .  A
C632        C633   1.414       .  A
C632        C637   1.452       .  S
C633        C634   1.413       .  A
C633        C640   1.449       .  S
C634        C635   1.426       .  A
C635        C636   1.415       .  A
C635        C638   1.451       .  S
C636        C639   1.449       .  S
C637        N644   1.157       .  T
C638        N643   1.157       .  T
C639        N641   1.157       .  T
C640        N642   1.157       .  T
C645        C646   1.409       .  A
C645        C650   1.417       .  A
C646        C647   1.412       .  A
C646        C651   1.451       .  S
C647        C648   1.420       .  A
C647        C654   1.453       .  S
C648        C649   1.409       .  A
C649        C650   1.415       .  A
C649        C652   1.449       .  S
C650        C653   1.450       .  S
C651        N658   1.157       .  T
C652        N657   1.157       .  T
C653        N655   1.157       .  T
C654        N656   1.157       .  T
C659        C660   1.417       .  A
C659        C664   1.421       .  A
C660        C661   1.415       .  A
C660        C665   1.451       .  S
C661        C662   1.415       .  A
C661        C668   1.452       .  S
C662        C663   1.410       .  A
C663        C664   1.419       .  A
C663        C666   1.450       .  S
C664        C667   1.451       .  S
C665        N672   1.157       .  T
C666        N671   1.157       .  T
C667        N669   1.157       .  T
C668        N670   1.157       .  T
C673        C674   1.419       .  A
C673        C678   1.418       .  A
C674        C675   1.418       .  A
C674        C679   1.449       .  S
C675        C676   1.410       .  A
C675        C682   1.449       .  S
C676        C677   1.412       .  A
C677        C678   1.408       .  A
C677        C680   1.455       .  S
C678        C681   1.453       .  S
C679        N686   1.157       .  T
C680        N685   1.157       .  T
C681        N683   1.157       .  T
C682        N684   1.157   1_655  T
C687        C688   1.411       .  A
C687        C692   1.427       .  A
C688        C689   1.413       .  A
C688        C693   1.448       .  S
C689        C690   1.417       .  A
C689        C696   1.452       .  S
C690        C691   1.403       .  A
C691        C692   1.410       .  A
C691        C694   1.451       .  S
C692        C695   1.452       .  S
C693        N700   1.157       .  T
C694        N699   1.157       .  T
C695        N697   1.157       .  T
C696        N698   1.157       .  T
C701        C702   1.414       .  A
C701        C706   1.421       .  A
C702        C703   1.418       .  A
C702        C707   1.451       .  S
C703        C704   1.418       .  A
C703        C710   1.451       .  S
C704        C705   1.410       .  A
C705        C706   1.418       .  A
C705        C708   1.450       .  S
C706        C709   1.451       .  S
C707        N714   1.158       .  T
C708        N713   1.157   1_545  T
C709        N711   1.157       .  T
C710        N712   1.157       .  T
C715        C716   1.419       .  A
C715        C720   1.417       .  A
C716        C717   1.415       .  A
C716        C721   1.451       .  S
C717        C718   1.408       .  A
C717        C724   1.450       .  S
C718        C719   1.412       .  A
C719        C720   1.415       .  A
C719        C722   1.450       .  S
C720        C723   1.450       .  S
C721        N728   1.157       .  T
C722        N727   1.157       .  T
C723        N725   1.157       .  T
C724        N726   1.157       .  T
C729        C730   1.414       .  A
C729        C734   1.411       .  A
C730        C731   1.409       .  A
C730        C735   1.454       .  S
C731        C732   1.416       .  A
C731        C738   1.453       .  S
C732        C733   1.417       .  A
C733        C734   1.419       .  A
C733        C736   1.449       .  S
C734        C737   1.449       .  S
C735        N742   1.157       .  T
C736        N741   1.157   1_455  T
C737        N739   1.157   1_455  T
C738        N740   1.157   1_554  T
C743        C744   1.415       .  A
C743        C748   1.422       .  A
C744        C745   1.419       .  A
C744        C749   1.450       .  S
C745        C746   1.416       .  A
C745        C752   1.451       .  S
C746        C747   1.410       .  A
C747        C748   1.414       .  A
C747        C750   1.451       .  S
C748        C751   1.453       .  S
C749        N756   1.157       .  T
C750        N755   1.157       .  T
C751        N753   1.158       .  T
C752        N754   1.157       .  T
C757        C758   1.403       .  A
C757        C762   1.414       .  A
C758        C759   1.408       .  A
C758        C763   1.448       .  S
C759        C760   1.418       .  A
C759        C766   1.449       .  S
C760        C761   1.407       .  A
C761        C762   1.403       .  A
C761        C764   1.450       .  S
C762        C765   1.452       .  S
C763        N770   1.157       .  T
C764        N769   1.157       .  T
C765        N767   1.157   1_655  T
C766        N768   1.157       .  T
C771        C772   1.414       .  A
C771        C776   1.407       .  A
C772        C773   1.406       .  A
C772        C777   1.453       .  S
C773        C774   1.410       .  A
C773        C780   1.452   1_545  S
C774        C775   1.415       .  A
C775        C776   1.406       .  A
C775        C778   1.452       .  S
C776        C779   1.451       .  S
C777        N784   1.157       .  T
C778        N783   1.157       .  T
C779        N781   1.157       .  T
C780        N782   1.157       .  T
C785        C786   1.417       .  A
C785        C790   1.414       .  A
C786        C787   1.410       .  A
C786        C791   1.454       .  S
C787        C788   1.410       .  A
C787        C794   1.449       .  S
C788        C789   1.415       .  A
C789        C790   1.416       .  A
C789        C792   1.451       .  S
C790        C793   1.451       .  S
C791        N798   1.158       .  T
C792        N797   1.157       .  T
C793        N795   1.157       .  T
C794        N796   1.156   1_556  T
C799        C800   1.421       .  A
C799        C804   1.418       .  A
C800        C801   1.411       .  A
C800        C805   1.452       .  S
C801        C802   1.408       .  A
C801        C808   1.452       .  S
C802        C803   1.409       .  A
C803        C804   1.412       .  A
C803        C806   1.449       .  S
C804        C807   1.451       .  S
C805        N812   1.157       .  T
C806        N811   1.156       .  T
C807        N809   1.157       .  T
C808        N810   1.157       .  T
C813        C814   1.406       .  A
C813        C818   1.411       .  A
C814        C815   1.405       .  A
C814        C819   1.451       .  S
C815        C816   1.412       .  A
C815        C822   1.451       .  S
C816        C817   1.408       .  A
C817        C818   1.402       .  A
C817        C820   1.452       .  S
C818        C821   1.453       .  S
C819        N826   1.157       .  T
C820        N825   1.157       .  T
C821        N823   1.157       .  T
C822        N824   1.157       .  T
C827        C828   1.420       .  A
C827        C832   1.421       .  A
C828        C829   1.420       .  A
C828        C833   1.450       .  S
C829        C830   1.416       .  A
C829        C836   1.452       .  S
C830        C831   1.415       .  A
C831        C832   1.421       .  A
C831        C834   1.451       .  S
C832        C835   1.450       .  S
C833        N840   1.157       .  T
C834        N839   1.157       .  T
C835        N837   1.157       .  T
C836        N838   1.157       .  T
C841        C842   1.415       .  A
C841        C846   1.415       .  A
C842        C843   1.421       .  A
C842        C847   1.450       .  S
C843        C844   1.415       .  A
C843        C850   1.449       .  S
C844        C845   1.415       .  A
C845        C846   1.422       .  A
C845        C848   1.450       .  S
C846        C849   1.450       .  S
C847        N854   1.157       .  T
C848        N853   1.157       .  T
C849        N851   1.157       .  T
C850        N852   1.157       .  T
C855        C856   1.412       .  A
C855        C860   1.415       .  A
C856        C857   1.419       .  A
C856        C861   1.451       .  S
C857        C858   1.420       .  A
C857        C864   1.451       .  S
C858        C859   1.419       .  A
C859        C860   1.423       .  A
C859        C862   1.450       .  S
C860        C863   1.449       .  S
C861        N868   1.157       .  T
C862        N867   1.158       .  T
C863        N865   1.157       .  T
C864        N866   1.157       .  T
